19
Iteration:   386charge 0 multiplicity 1
 C         0.266481        -0.861142         0.687195
 C         1.524125        -0.190465         0.197225
 C         2.126738        -0.559736        -1.123340
 C         3.246355         0.303570        -0.587458
 C         4.610061        -0.344838        -0.456126
 O         3.930292        -1.358072         0.465697
 C         2.900888        -0.257424         0.816253
 C         2.720169         1.788497        -0.450661
 O         1.415293         1.299664         0.000625
 H        -0.270516        -0.226168         1.506500
 H        -0.462241        -1.046268        -0.077140
 H         0.460423        -1.807415         1.279284
 H         2.490762        -1.608777        -1.192824
 H         1.572645        -0.295889        -2.057801
 H         4.984855        -0.862974        -1.325320
 H         5.342768         0.408456        -0.038742
 H         3.047769         0.142950         1.827737
 H         3.191614         2.286677         0.475135
 H         2.528824         2.598794        -1.289760
