19
Iteration:  4612
 C         0.029025        -0.568225         0.501191
 C         1.534214        -0.089064         0.284685
 C         1.941538         0.961951        -0.695548
 C         3.342584         0.528998        -0.260436
 C         4.195227         0.116976        -1.404077
 O         3.369936        -1.099626        -1.533202
 C         2.809074        -0.905232        -0.180734
 C         3.460574         0.761563         1.283981
 O         2.016370         0.254130         1.604701
 H        -0.467586        -0.887361        -0.509923
 H         0.174300        -1.543854         1.145168
 H        -0.565810         0.144986         1.160633
 H         1.706869         0.709729        -1.724448
 H         1.788948         1.952871        -0.355150
 H         4.268104         0.670518        -2.361923
 H         5.191507        -0.151085        -1.112955
 H         3.278357        -1.759155         0.570965
 H         4.229831         0.071522         1.572657
 H         3.620047         1.810776         1.674937
