19
Iteration:   755
 C         0.232700        -0.842699         0.631672
 C         1.465014        -0.152562         0.137752
 C         1.986833        -0.371435        -1.269734
 C         3.283414         0.424019        -0.593057
 C         4.598749        -0.457872        -0.537968
 O         3.913236        -1.448828         0.189544
 C         2.897639        -0.376856         0.617499
 C         2.803248         1.750977        -0.127755
 O         1.499254         1.333870         0.474342
 H        -0.428297        -0.210680         1.276312
 H        -0.458473        -1.099697        -0.148272
 H         0.585939        -1.765742         1.188097
 H         2.350466        -1.361200        -1.671517
 H         1.449617         0.130519        -2.089678
 H         4.865024        -0.877433        -1.512807
 H         5.425150         0.077155         0.003194
 H         3.130611        -0.198927         1.661799
 H         3.579596         2.055061         0.630547
 H         2.841217         2.604622        -0.689301
