19
Iteration:   253charge 0 multiplicity 1
 C         0.270278        -0.775810         0.789050
 C         1.503266        -0.231956         0.072264
 C         2.220179        -0.493822        -1.285081
 C         3.346326         0.331659        -0.566468
 C         4.589923        -0.373373        -0.361396
 O         3.963748        -1.253718         0.688263
 C         2.872861        -0.352329         0.790633
 C         2.605203         1.696673        -0.681292
 O         1.374168         1.251852         0.088913
 H        -0.602066        -1.039002         0.170444
 H         0.645891        -1.680054         1.322996
 H        -0.039002        -0.029704         1.529274
 H         2.542202        -1.521104        -1.346898
 H         1.759808        -0.139920        -2.182262
 H         4.934568        -0.917462        -1.214971
 H         5.436412         0.192767         0.111925
 H         2.938055         0.255746         1.619297
 H         2.890602         2.572645        -0.178227
 H         2.344635         1.920461        -1.781552
