19
Iteration:  1189charge 0 multiplicity 1
 C         0.234316        -0.856964         0.573041
 C         1.533438        -0.154853         0.185558
 C         1.953201        -0.007059        -1.257646
 C         3.306897         0.469438        -0.507450
 C         4.573715        -0.447069        -0.793427
 O         3.726179        -1.545390        -0.192626
 C         3.012665        -0.535986         0.534572
 C         2.967328         1.692000         0.264529
 O         1.489457         1.259592         0.738772
 H        -0.374891        -1.154718        -0.290086
 H         0.332171        -1.841315         1.049540
 H        -0.379196        -0.251638         1.195765
 H         1.981725        -0.919637        -1.763152
 H         1.376972         0.748099        -1.877674
 H         4.834775        -0.651690        -1.841675
 H         5.313302        -0.222229        -0.100624
 H         3.096587        -0.470718         1.600880
 H         3.664802         2.020989         1.136336
 H         2.878140         2.592717        -0.269430
