19
Iteration:  2056charge 0 multiplicity 1
 C         0.247646        -0.659378         0.531640
 C         1.575692        -0.194646         0.177689
 C         1.941177         0.454715        -1.210678
 C         3.324372         0.553564        -0.402850
 C         4.388706        -0.291043        -1.061970
 O         3.541170        -1.505091        -0.813588
 C         2.909699        -0.829577         0.254060
 C         2.990764         1.528508         0.799784
 O         1.835904         0.803033         1.271479
 H        -0.406424         0.217895         0.573319
 H        -0.163873        -1.312169        -0.180586
 H         0.320459        -1.070927         1.501352
 H         2.025473        -0.115562        -2.117585
 H         1.323780         1.430200        -1.478102
 H         4.626807        -0.193051        -2.186981
 H         5.346923        -0.394414        -0.541270
 H         3.277731        -1.107716         1.334595
 H         3.654301         1.635694         1.627129
 H         2.581620         2.569497         0.654386
