19
Iteration:   215charge 0 multiplicity 1
 C         0.229199        -0.800675         0.694012
 C         1.515339        -0.180502         0.242951
 C         2.134430        -0.648166        -1.137595
 C         3.313686         0.307672        -0.680294
 C         4.614535        -0.308123        -0.376492
 O         3.903188        -1.209707         0.665544
 C         2.984012        -0.202210         0.725772
 C         2.714684         1.649690        -0.574750
 O         1.341338         1.185710        -0.008449
 H        -0.579381        -0.032232         0.688201
 H         0.012475        -1.629046         0.034553
 H         0.312887        -1.259565         1.697943
 H         2.430922        -1.713626        -1.178771
 H         1.584636        -0.337466        -2.075167
 H         5.209524        -0.912293        -1.124044
 H         5.207811         0.388133         0.187125
 H         3.262395         0.515251         1.608810
 H         3.298419         2.481437         0.017338
 H         2.427870         2.266788        -1.519219
