19
Iteration:   913charge 0 multiplicity 1
 C         0.194312        -0.783880         0.599636
 C         1.556703        -0.204401         0.210765
 C         1.950295        -0.193425        -1.228620
 C         3.288875         0.445776        -0.455342
 C         4.530842        -0.428042        -0.735357
 O         3.860902        -1.553697         0.011883
 C         2.981583        -0.533930         0.711484
 C         2.854071         1.804903         0.020901
 O         1.503668         1.280291         0.476944
 H        -0.294909        -0.371023         1.462158
 H        -0.423839        -0.760997        -0.300245
 H         0.449085        -1.827116         0.731333
 H         2.405582        -1.031666        -1.812570
 H         1.370806         0.411438        -1.919306
 H         4.889840        -0.587029        -1.780234
 H         5.305247        -0.073081        -0.018680
 H         3.199461        -0.278246         1.740825
 H         3.419003         2.248605         0.832024
 H         2.719699         2.547939        -0.666608
