19
Iteration:  2577charge 0 multiplicity 1
 C         0.249321        -0.759040         0.528070
 C         1.529058        -0.067132         0.203103
 C         1.959254         0.781627        -0.973511
 C         3.395835         0.519473        -0.252996
 C         4.303230        -0.217033        -1.185235
 O         3.471174        -1.459704        -1.091975
 C         2.789740        -0.930549         0.116322
 C         3.102690         1.403807         0.874494
 O         1.916149         0.670427         1.386295
 H         0.481928        -1.456400         1.290558
 H        -0.568135        -0.198647         0.851285
 H        -0.026394        -1.320968        -0.332464
 H         1.862768         0.386057        -2.061091
 H         1.681580         1.920101        -0.928893
 H         4.630775         0.010637        -2.205575
 H         5.217868        -0.591039        -0.678482
 H         2.995926        -1.631849         0.973904
 H         3.832220         1.438374         1.664550
 H         2.898563         2.473695         0.556685
