19
Iteration:  3321
 C         0.211820        -0.805166         0.424685
 C         1.538252        -0.130170         0.231070
 C         1.869341         0.947715        -0.796471
 C         3.350340         0.545435        -0.229747
 C         4.208728        -0.069059        -1.324844
 O         3.321419        -1.240117        -1.353907
 C         2.830274        -0.874992        -0.055878
 C         3.373986         0.986146         1.181773
 O         2.036769         0.549069         1.550807
 H        -0.463464        -0.145378         0.934044
 H        -0.285490        -0.692239        -0.560673
 H         0.165061        -1.770052         0.772160
 H         1.743720         0.597409        -1.877908
 H         1.489380         1.965095        -0.739969
 H         4.298882         0.467527        -2.320807
 H         5.157344        -0.474406        -0.899928
 H         3.188326        -1.540168         0.731139
 H         4.042811         0.474404         1.806205
 H         3.494193         2.152455         1.398613
