19
Iteration:  3391charge 0 multiplicity 1
 C         0.039373        -0.667298         0.504442
 C         1.487456        -0.204466         0.273824
 C         1.914560         0.952176        -0.795225
 C         3.321117         0.576026        -0.235690
 C         4.269885        -0.057061        -1.300439
 O         3.373146        -1.172179        -1.393006
 C         2.856611        -0.853081        -0.072067
 C         3.377279         1.001806         1.145796
 O         2.068892         0.339608         1.495387
 H        -0.587329        -0.200559        -0.210417
 H        -0.090980        -1.642527         0.409807
 H        -0.178374        -0.342262         1.542041
 H         1.819508         0.638938        -1.896744
 H         1.461810         2.036175        -0.793965
 H         4.381672         0.344411        -2.327653
 H         5.263055        -0.400142        -0.817524
 H         3.331050        -1.530343         0.664493
 H         4.220741         0.579359         1.768952
 H         3.266366         2.032194         1.331140
