19
Iteration:  3608charge 0 multiplicity 1
 C         0.150732        -0.707679         0.473274
 C         1.510048        -0.105220         0.257161
 C         1.922421         0.984527        -0.650024
 C         3.435521         0.619046        -0.218095
 C         4.270686        -0.043860        -1.337978
 O         3.220766        -1.102001        -1.525673
 C         2.814267        -0.815276        -0.211720
 C         3.359089         0.881974         1.283243
 O         2.060853         0.282342         1.578310
 H        -0.268671        -0.435813         1.449296
 H        -0.419023        -0.389886        -0.556013
 H         0.154299        -1.867614         0.593711
 H         1.843474         0.647759        -1.639609
 H         1.544425         1.965011        -0.734604
 H         4.471589         0.436578        -2.303883
 H         5.184947        -0.573415        -1.038806
 H         3.258808        -1.617924         0.381406
 H         4.048732         0.478918         1.938428
 H         3.273996         1.887229         1.473480
