19
Iteration:  3205charge 0 multiplicity 1
 C         0.215465        -0.758907         0.458750
 C         1.485592        -0.114255         0.224636
 C         1.923437         1.014259        -0.794806
 C         3.352454         0.551926        -0.258121
 C         4.222083        -0.106045        -1.290586
 O         3.419752        -1.312482        -1.301899
 C         2.734096        -0.914410        -0.109649
 C         3.311735         1.049511         1.097432
 O         2.043603         0.505699         1.549173
 H         0.038877        -1.174017         1.504271
 H        -0.559102        -0.012349         0.295550
 H         0.124906        -1.547848        -0.414314
 H         1.733422         0.869587        -1.848537
 H         1.455341         1.901359        -0.473824
 H         4.285048         0.400490        -2.234000
 H         5.141245        -0.479970        -0.913615
 H         3.083565        -1.525202         0.743880
 H         4.204841         0.709547         1.778345
 H         3.296240         2.274368         1.232042
