19
Iteration:  2568
 C         0.240684        -0.782410         0.493385
 C         1.499983        -0.137572         0.215440
 C         1.905574         0.780035        -0.965078
 C         3.302219         0.451406        -0.301015
 C         4.382818        -0.248816        -1.117807
 O         3.489082        -1.423889        -1.077869
 C         2.779757        -0.915982         0.080563
 C         3.193919         1.377465         0.896887
 O         1.944885         0.772879         1.365631
 H         0.517308        -1.622251         1.122809
 H        -0.565394        -0.156680         1.035851
 H        -0.212100        -1.104712        -0.476936
 H         1.737915         0.389208        -2.044649
 H         1.396663         1.766005        -0.790677
 H         4.379405         0.340507        -2.059603
 H         5.357009        -0.540389        -0.755214
 H         3.059759        -1.528753         1.066594
 H         3.973805         1.311943         1.722436
 H         2.910425         2.447278         0.507766
