19
Iteration:  1260
 C         0.153017        -0.716459         0.581655
 C         1.485423        -0.169807         0.163055
 C         1.953804         0.079570        -1.290365
 C         3.306911         0.495606        -0.523518
 C         4.494306        -0.435994        -0.835173
 O         3.846212        -1.559921        -0.211908
 C         3.002612        -0.718319         0.539909
 C         2.920025         1.726906         0.258452
 O         1.562326         1.145082         0.848751
 H         0.340293        -1.569492         1.262529
 H        -0.550219        -0.025123         1.085290
 H        -0.349560        -1.114601        -0.370264
 H         2.081120        -0.884292        -1.912810
 H         1.484358         0.843013        -1.932707
 H         4.925816        -0.498582        -1.833625
 H         5.140978        -0.008261        -0.011357
 H         3.452086        -0.745301         1.593805
 H         3.538720         1.950086         1.088270
 H         2.762047         2.735331        -0.315794
