19
Iteration:  2519
 C         0.194087        -0.651608         0.510392
 C         1.512473        -0.159827         0.194739
 C         1.878271         0.612407        -1.022490
 C         3.350370         0.510787        -0.303468
 C         4.312762        -0.150276        -1.269494
 O         3.543114        -1.429934        -1.044792
 C         2.916764        -0.854653         0.171844
 C         3.163751         1.281809         1.007232
 O         1.856382         0.749200         1.341884
 H         0.148772        -1.720707         0.695405
 H         0.015601        -0.138627         1.401621
 H        -0.520076        -0.393587        -0.235157
 H         1.851947        -0.077924        -1.832972
 H         1.474854         1.640491        -1.330339
 H         4.367911         0.178315        -2.329267
 H         5.326216        -0.444044        -0.890224
 H         3.149902        -1.392080         1.059830
 H         3.795322         1.026652         1.851659
 H         3.211192         2.326734         0.952026
