19
Iteration:  4210
 C         0.174071        -0.652298         0.412934
 C         1.532906        -0.138524         0.287996
 C         1.913523         1.092843        -0.638223
 C         3.388856         0.519998        -0.205759
 C         4.200006         0.022699        -1.357973
 O         3.290166        -1.107389        -1.555425
 C         2.803088        -0.915495        -0.141504
 C         3.440371         0.819226         1.265542
 O         2.036159         0.281083         1.565912
 H        -0.230321        -1.063935        -0.573017
 H        -0.003741        -1.546610         1.170949
 H        -0.498149         0.192357         0.881951
 H         1.584182         0.995212        -1.712448
 H         1.651416         2.054091        -0.289979
 H         4.117642         0.739980        -2.260298
 H         5.251625        -0.344450        -1.197918
 H         3.139950        -1.666377         0.432870
 H         4.145778         0.175661         1.889180
 H         3.343062         1.875706         1.567626
