19
Iteration:   736
 C         0.257775        -0.892137         0.664528
 C         1.482010        -0.167973         0.158784
 C         2.096356        -0.272634        -1.248725
 C         3.302872         0.424905        -0.632772
 C         4.550041        -0.408158        -0.630229
 O         3.801467        -1.476979         0.250388
 C         2.915767        -0.436154         0.704889
 C         2.825602         1.746613        -0.098463
 O         1.493688         1.313467         0.365103
 H         0.154588        -0.694783         1.745300
 H        -0.703151        -0.422420         0.217406
 H         0.388601        -1.961532         0.506873
 H         2.232709        -1.357026        -1.500503
 H         1.675501         0.135591        -2.298704
 H         5.002924        -0.789509        -1.566388
 H         5.267936         0.070895         0.120650
 H         3.276196        -0.014391         1.665204
 H         3.455655         2.350942         0.669696
 H         2.512145         2.557692        -0.853214
