19
Iteration:  3211charge 0 multiplicity 1
 C         0.161025        -0.772062         0.469964
 C         1.513774        -0.166944         0.239272
 C         1.950293         0.990120        -0.789102
 C         3.349142         0.571770        -0.298890
 C         4.256136        -0.075388        -1.286580
 O         3.367883        -1.296056        -1.314795
 C         2.758190        -0.888582        -0.109511
 C         3.334654         1.047470         1.151749
 O         2.049620         0.514225         1.522832
 H         0.052146        -1.018944         1.492454
 H        -0.568182         0.018833         0.151746
 H        -0.016782        -1.555492        -0.170880
 H         1.811559         0.578452        -1.914982
 H         1.471480         2.012130        -0.574522
 H         4.277948         0.291256        -2.366838
 H         5.256083        -0.382502        -0.811621
 H         3.076792        -1.486592         0.756412
 H         4.044318         0.713910         1.827851
 H         3.193185         2.035858         1.316189
