19
Iteration:  4193charge 0 multiplicity 1
 C         0.009267        -0.687473         0.504817
 C         1.414511        -0.148382         0.228938
 C         1.923125         1.025568        -0.597353
 C         3.348748         0.510424        -0.200422
 C         4.255652         0.099595        -1.351545
 O         3.400296        -1.143372        -1.562505
 C         2.728330        -0.935608        -0.283827
 C         3.467575         0.800237         1.256083
 O         2.114627         0.390247         1.584219
 H        -0.362123        -0.721071        -0.481550
 H         0.214988        -1.608668         0.908401
 H        -0.556944        -0.058454         1.102325
 H         1.875797         0.820753        -1.639708
 H         1.623713         2.077451        -0.124525
 H         4.323176         0.716344        -2.187196
 H         5.221667        -0.186736        -0.966527
 H         2.987557        -1.826772         0.581873
 H         4.153057         0.180326         1.802345
 H         3.668597         1.858855         1.525584
