19
Iteration:  3965charge 0 multiplicity 1
 C         0.061130        -0.811590         0.407573
 C         1.448187        -0.069194         0.239125
 C         2.037997         1.133924        -0.610052
 C         3.374485         0.501392        -0.196534
 C         4.181561         0.072497        -1.441066
 O         3.352647        -1.187790        -1.499780
 C         2.727070        -0.919356        -0.185978
 C         3.474514         0.848122         1.299392
 O         2.077411         0.348643         1.628258
 H        -0.635651        -0.625379        -0.593466
 H         0.082682        -1.902394         0.653354
 H        -0.581186        -0.256809         1.158516
 H         1.787097         1.047628        -1.571302
 H         1.889224         2.085020        -0.381880
 H         3.931682         0.783438        -2.288328
 H         5.313194        -0.118078        -1.383990
 H         3.076489        -1.730105         0.468520
 H         4.267527         0.282400         1.708059
 H         3.485912         1.962235         1.583893
