19
Iteration:  1803charge 0 multiplicity 1
 C         0.147619        -0.861869         0.570403
 C         1.500741        -0.125198         0.170105
 C         1.884641         0.374646        -1.155127
 C         3.322181         0.531833        -0.450386
 C         4.437654        -0.390048        -0.982729
 O         3.644018        -1.490430        -0.674169
 C         2.924085        -0.727665         0.374508
 C         3.101832         1.540314         0.669548
 O         1.734945         1.047439         1.051317
 H        -0.790248        -0.279748         0.588178
 H        -0.027753        -1.739525        -0.070850
 H         0.399029        -1.261969         1.561977
 H         2.012940        -0.431555        -1.963395
 H         1.366822         1.259900        -1.493991
 H         4.713078        -0.310018        -2.079242
 H         5.427635        -0.272011        -0.460100
 H         3.352456        -0.917844         1.397301
 H         3.867488         1.478518         1.420699
 H         2.942010         2.644519         0.272671
