19
Iteration:   175charge 0 multiplicity 1
 C         0.159246        -0.757795         0.720339
 C         1.460944        -0.237350         0.140282
 C         2.214817        -0.581063        -1.091668
 C         3.336392         0.367006        -0.535465
 C         4.667310        -0.435428        -0.460491
 O         4.050255        -1.158546         0.744109
 C         2.954814        -0.267502         0.814334
 C         2.614111         1.694481        -0.692261
 O         1.303740         1.224291        -0.038552
 H        -0.017805        -0.555623         1.759835
 H        -0.720025        -0.344502         0.124968
 H         0.133228        -1.873877         0.582335
 H         2.556137        -1.621133        -1.176589
 H         1.794975        -0.271431        -2.026848
 H         4.838557        -1.126502        -1.309795
 H         5.647025        -0.019076        -0.137406
 H         2.848394         0.111735         1.779680
 H         2.997908         2.557203        -0.238975
 H         2.522276         1.907137        -1.807170
