19
Iteration:  3311
 C         0.201412        -0.712633         0.421649
 C         1.512023        -0.092154         0.251361
 C         1.877105         0.952790        -0.816730
 C         3.334058         0.673008        -0.281863
 C         4.167942        -0.111889        -1.288566
 O         3.355665        -1.302513        -1.368552
 C         2.881548        -0.861178        -0.080676
 C         3.384895         0.978625         1.224350
 O         1.983670         0.465647         1.565272
 H        -0.292756        -0.321258         1.278302
 H        -0.264437        -0.681668        -0.518315
 H         0.376177        -1.690806         0.653830
 H         1.763776         0.408365        -1.917651
 H         1.387416         1.943882        -0.727727
 H         4.326327         0.204885        -2.379431
 H         5.250984        -0.358633        -0.987548
 H         3.337621        -1.424768         0.731917
 H         4.121777         0.475314         1.730127
 H         3.406230         2.093083         1.394883
