19
Iteration:  3920
 C         0.172721        -0.674592         0.413820
 C         1.590004        -0.204570         0.317705
 C         1.957011         0.979143        -0.665182
 C         3.402032         0.596333        -0.233180
 C         4.220470        -0.033035        -1.334566
 O         3.147308        -1.020371        -1.599903
 C         2.830453        -0.844884        -0.148128
 C         3.369815         0.884072         1.275699
 O         2.075089         0.260022         1.615969
 H        -0.182922        -0.863335        -0.713390
 H        -0.017341        -1.583705         1.031204
 H        -0.407029         0.198820         0.876907
 H         1.781275         0.740189        -1.605378
 H         1.642364         1.935256        -0.493785
 H         4.480235         0.438969        -2.293859
 H         5.100142        -0.630944        -0.952303
 H         3.331343        -1.601356         0.446562
 H         4.056836         0.324597         1.872137
 H         3.297528         1.954122         1.614668
