19
Iteration:  3822charge 0 multiplicity 1
 C         0.156671        -0.636448         0.382808
 C         1.565099        -0.130446         0.284469
 C         1.945285         1.043982        -0.649557
 C         3.328698         0.480029        -0.197677
 C         4.192511         0.067516        -1.359506
 O         3.191573        -1.064697        -1.599129
 C         2.812602        -0.927851        -0.141299
 C         3.441536         0.876836         1.266471
 O         2.107770         0.212264         1.671265
 H         0.007995        -1.711814        -0.088491
 H        -0.077140        -0.658259         1.444085
 H        -0.502970        -0.002039        -0.274069
 H         1.602259         0.902156        -1.725514
 H         1.783672         2.052729        -0.374686
 H         4.271910         0.768875        -2.201372
 H         5.166540        -0.334928        -1.113032
 H         3.199233        -1.798391         0.439971
 H         4.215525         0.367656         1.686288
 H         3.386874         1.940473         1.581657
