19
Iteration:  1558charge 0 multiplicity 1
 C         0.156556        -0.794219         0.577873
 C         1.469332        -0.154864         0.231923
 C         1.923744         0.269171        -1.142014
 C         3.294271         0.488697        -0.500656
 C         4.486837        -0.298393        -0.902758
 O         3.753045        -1.566910        -0.521278
 C         2.915456        -0.808971         0.436354
 C         2.993108         1.594516         0.484381
 O         1.721348         1.114935         0.930540
 H        -0.648118        -0.065012         0.340082
 H         0.013361        -1.683917        -0.028598
 H         0.057805        -1.116140         1.577495
 H         1.735963        -0.597729        -1.891592
 H         1.517863         1.168423        -1.596666
 H         4.727575        -0.220295        -1.943111
 H         5.338873        -0.063599        -0.241348
 H         3.304052        -0.948205         1.503026
 H         3.711199         1.807921         1.215083
 H         2.936811         2.580473        -0.137192
