19
Iteration:  4785charge 0 multiplicity 1
 C         0.017680        -0.581746         0.509631
 C         1.495703        -0.229441         0.290034
 C         1.963929         0.935837        -0.600555
 C         3.393324         0.464951        -0.207680
 C         4.274136         0.075111        -1.350571
 O         3.334538        -1.048045        -1.675172
 C         2.814962        -0.929671        -0.199579
 C         3.375863         0.918180         1.268048
 O         2.058680         0.283441         1.622610
 H        -0.428188        -0.412776        -0.482060
 H        -0.176673        -1.575042         0.889253
 H        -0.281542         0.184466         1.170760
 H         1.714547         0.596837        -1.685271
 H         1.603636         1.957029        -0.174480
 H         4.293834         0.502684        -2.378368
 H         5.315875        -0.432560        -1.113856
 H         3.276887        -1.708719         0.330423
 H         4.212367         0.479831         1.841622
 H         3.305743         1.975234         1.483154
