19
Iteration:  3573charge 0 multiplicity 1
 C         0.034732        -0.638326         0.456542
 C         1.473365        -0.234208         0.294818
 C         1.923512         0.925443        -0.573022
 C         3.397216         0.450686        -0.185076
 C         4.261031         0.067698        -1.331630
 O         3.351213        -1.085716        -1.543670
 C         2.817344        -0.988205        -0.218860
 C         3.377639         0.974617         1.135152
 O         2.100758         0.362583         1.599075
 H        -0.306085        -0.582128         1.494025
 H        -0.694564         0.242149         0.038963
 H        -0.158379        -1.538963        -0.146149
 H         1.862538         0.698118        -1.678909
 H         1.665654         1.840416        -0.230130
 H         4.358680         0.845023        -2.163495
 H         5.241887        -0.277081        -0.992311
 H         3.108978        -1.833542         0.432733
 H         4.105557         0.645923         1.873999
 H         3.324438         2.006948         1.104470
