19
Iteration:  2392charge 0 multiplicity 1
 C         0.124011        -0.713989         0.504785
 C         1.539298        -0.140971         0.236657
 C         1.929992         0.689939        -1.044160
 C         3.382384         0.510312        -0.328534
 C         4.326359        -0.265907        -1.178627
 O         3.536037        -1.488194        -1.002888
 C         2.885791        -0.850977         0.150214
 C         3.101638         1.467080         0.891593
 O         1.912520         0.689961         1.357723
 H        -0.579081        -0.455146        -0.366773
 H         0.204909        -1.833370         0.657088
 H        -0.233333        -0.200330         1.417111
 H         1.776901         0.180760        -1.958482
 H         1.538680         1.701988        -1.030176
 H         4.464449         0.111740        -2.199026
 H         5.317968        -0.414587        -0.696889
 H         3.349198        -1.293570         1.066641
 H         3.876189         1.291923         1.584916
 H         2.791771         2.507718         0.628756
