19
Iteration:  4509
 C         0.102295        -0.680787         0.476145
 C         1.519252        -0.126813         0.254826
 C         1.944995         1.087999        -0.608078
 C         3.370912         0.522406        -0.198600
 C         4.205570         0.105972        -1.400354
 O         3.292916        -1.169765        -1.535793
 C         2.790829        -0.877018        -0.240610
 C         3.442369         0.774254         1.334990
 O         2.034743         0.294932         1.564004
 H        -0.262851        -1.306396        -0.439431
 H         0.083155        -1.327476         1.357301
 H        -0.700160         0.144601         0.568516
 H         1.827888         1.148180        -1.790523
 H         1.893801         2.109653        -0.083704
 H         4.104886         0.654063        -2.287038
 H         5.187497        -0.264877        -1.353011
 H         3.381022        -1.576809         0.489611
 H         4.197379         0.133753         1.845323
 H         3.680425         1.781309         1.376467
