19
Iteration:  2420charge 0 multiplicity 1
 C         0.160336        -0.851765         0.553855
 C         1.483718        -0.079428         0.206800
 C         1.935698         0.784261        -0.966371
 C         3.435087         0.457248        -0.264072
 C         4.338374        -0.297168        -1.265808
 O         3.608124        -1.487571        -1.017765
 C         2.829305        -0.916238         0.115441
 C         3.133999         1.384909         0.937918
 O         1.810583         0.886982         1.297353
 H        -0.453643        -0.964233        -0.284114
 H         0.342863        -1.758256         1.062378
 H        -0.355968        -0.151108         1.188767
 H         1.740184         0.250878        -1.939409
 H         1.530626         1.867785        -0.920246
 H         4.384021         0.070515        -2.317249
 H         5.381259        -0.432463        -0.923649
 H         3.111453        -1.522832         0.993357
 H         3.920237         1.164483         1.709926
 H         3.058200         2.481191         0.705011
