19
Iteration:  4790charge 0 multiplicity 1
 C         0.054691        -0.588979         0.492376
 C         1.511304        -0.205816         0.295489
 C         1.969655         0.926276        -0.579841
 C         3.357652         0.456292        -0.209351
 C         4.280521         0.072701        -1.333519
 O         3.316621        -1.050606        -1.702726
 C         2.784300        -0.923506        -0.187177
 C         3.354857         0.910139         1.310846
 O         2.111353         0.308484         1.579158
 H        -0.393594        -0.584530        -0.541797
 H        -0.251508        -1.655636         0.932769
 H        -0.393655         0.251093         1.275958
 H         1.812004         0.612991        -1.616434
 H         1.610055         1.881832        -0.363128
 H         4.275837         0.528822        -2.331206
 H         5.205194        -0.403472        -1.100843
 H         3.330292        -1.799973         0.336759
 H         4.093275         0.438061         1.969107
 H         3.266380         2.013763         1.499832
