19
Iteration:   498
 C         0.211344        -0.723912         0.638425
 C         1.529539        -0.221182         0.189699
 C         2.083885        -0.490526        -1.197971
 C         3.309897         0.329039        -0.515164
 C         4.613707        -0.404652        -0.523661
 O         4.067674        -1.426521         0.419847
 C         2.952509        -0.354758         0.776095
 C         2.609352         1.782918        -0.373986
 O         1.369895         1.309387         0.160389
 H         0.215236        -1.853823         0.534547
 H         0.116730        -0.351060         1.753072
 H        -0.588366        -0.295303        -0.034578
 H         2.226070        -1.591179        -1.367709
 H         1.497647         0.044055        -1.997886
 H         5.008827        -0.656960        -1.563616
 H         5.426468         0.090413         0.077526
 H         3.065202         0.107361         1.809551
 H         2.992499         2.311197         0.545280
 H         2.474382         2.258503        -1.389029
