19
Iteration:  4180
 C         0.026487        -0.663590         0.503383
 C         1.438766        -0.126677         0.204331
 C         1.938222         0.995004        -0.624920
 C         3.344384         0.509690        -0.254359
 C         4.276339         0.042452        -1.322602
 O         3.453632        -1.074208        -1.584897
 C         2.714309        -0.914546        -0.214747
 C         3.420337         0.764318         1.213695
 O         2.079354         0.390939         1.662920
 H        -0.753324        -0.759153        -0.166096
 H         0.051413        -1.649327         0.848212
 H        -0.437422        -0.182618         1.375628
 H         1.612251         0.923790        -1.602646
 H         1.667483         2.144091        -0.459938
 H         4.359167         0.656748        -2.203507
 H         5.301693        -0.246733        -1.054983
 H         3.085909        -2.016073         0.356902
 H         4.284873         0.189675         1.661008
 H         3.552040         1.770455         1.491171
