19
Iteration:  1326charge 0 multiplicity 1
 C         0.190634        -0.864265         0.588582
 C         1.493384        -0.098539         0.122806
 C         2.040577         0.200723        -1.219427
 C         3.370045         0.461255        -0.387548
 C         4.509457        -0.477526        -0.929556
 O         3.760767        -1.583215        -0.286984
 C         2.962244        -0.689734         0.520885
 C         2.800854         1.726415         0.344712
 O         1.631020         1.188958         0.821365
 H        -0.415434        -0.065682         0.945735
 H        -0.380020        -1.399715        -0.151938
 H         0.536575        -1.582732         1.348989
 H         2.202839        -0.599722        -1.899524
 H         1.614034         1.108142        -1.765219
 H         4.585688        -0.604772        -1.998916
 H         5.426279        -0.484265        -0.385046
 H         3.060289        -0.753298         1.642284
 H         3.189689         2.172847         1.168484
 H         2.662717         2.603101        -0.370042
