19
Iteration:  2945charge 0 multiplicity 1
 C         0.050218        -0.730853         0.529642
 C         1.469622        -0.163167         0.221215
 C         1.952212         0.803398        -0.847428
 C         3.431535         0.460405        -0.230219
 C         4.337173        -0.085769        -1.292016
 O         3.480568        -1.315144        -1.234229
 C         2.870058        -0.902362        -0.024451
 C         3.227856         1.199337         1.005592
 O         1.949245         0.603282         1.453454
 H        -0.216615        -0.315867         1.499797
 H        -0.561605        -0.425189        -0.216649
 H        -0.071355        -1.757513         0.748817
 H         1.807452         0.556544        -1.856442
 H         1.565886         1.896005        -0.572438
 H         4.211398         0.410084        -2.249291
 H         5.426334        -0.354627        -1.190424
 H         2.967190        -1.651588         0.825567
 H         3.978603         0.968689         1.792201
 H         3.111630         2.263972         0.920661
