19
Iteration:  4375charge 0 multiplicity 1
 C         0.176758        -0.658662         0.366818
 C         1.533989        -0.092636         0.274096
 C         1.943723         0.981955        -0.662431
 C         3.394266         0.518422        -0.177520
 C         4.176235         0.000383        -1.401819
 O         3.197336        -1.049828        -1.555150
 C         2.826363        -0.889406        -0.139693
 C         3.428656         0.845559         1.329573
 O         2.053858         0.288369         1.605711
 H        -0.413404        -0.437613        -0.511542
 H         0.208502        -1.789999         0.466662
 H        -0.318454        -0.284897         1.349190
 H         1.739425         0.756285        -1.664654
 H         1.520023         1.955430        -0.542373
 H         4.319255         0.547148        -2.357970
 H         5.108684        -0.415400        -1.027999
 H         3.566313        -1.600677         0.579863
 H         4.257471         0.245884         1.840295
 H         3.382452         1.916557         1.546357
