19
Iteration:  3366
 C         0.225307        -0.710708         0.494691
 C         1.564627        -0.175349         0.305332
 C         1.983861         0.917430        -0.785296
 C         3.380331         0.515735        -0.199078
 C         4.324111        -0.080773        -1.325368
 O         3.264575        -1.215210        -1.531159
 C         2.797318        -0.924123        -0.099786
 C         3.221002         1.079515         1.258392
 O         2.001966         0.477407         1.555944
 H        -0.440926         0.009190         0.087586
 H         0.029455        -1.594554        -0.034980
 H         0.109999        -0.744637         1.525544
 H         1.745124         0.592143        -1.894439
 H         1.634125         1.951156        -0.690835
 H         4.301220         0.458385        -2.308668
 H         5.318223        -0.554394        -1.107199
 H         3.210914        -1.682269         0.559737
 H         3.968560         0.819429         1.946679
 H         3.052566         2.262405         1.290215
