19
Iteration:  2581charge 0 multiplicity 1
 C         0.249356        -0.764237         0.534357
 C         1.520954        -0.054100         0.195339
 C         1.984145         0.790832        -0.975519
 C         3.417744         0.538697        -0.260450
 C         4.297693        -0.233307        -1.203515
 O         3.453470        -1.464270        -1.104913
 C         2.812925        -0.923664         0.120398
 C         3.082126         1.412909         0.887849
 O         1.906898         0.649129         1.389822
 H         0.420697        -1.459594         1.403669
 H        -0.665230        -0.044230         0.820725
 H        -0.003114        -1.484093        -0.328042
 H         1.899773         0.337805        -1.963863
 H         1.782355         1.824703        -1.021001
 H         4.619425        -0.074115        -2.252356
 H         5.203433        -0.447688        -0.636006
 H         3.018536        -1.633140         1.022885
 H         3.859797         1.485362         1.739181
 H         2.872548         2.506810         0.635126
