19
Iteration:  1501
 C         0.258239        -0.815802         0.587430
 C         1.516287        -0.188627         0.129178
 C         2.028765         0.297915        -1.314281
 C         3.291104         0.587531        -0.489556
 C         4.421477        -0.481962        -0.948025
 O         3.677084        -1.585146        -0.407631
 C         2.941406        -0.645723         0.498673
 C         2.944529         1.670241         0.484912
 O         1.628090         1.025884         1.012449
 H        -0.024757        -0.507856         1.572971
 H        -0.455818        -0.314700        -0.060468
 H         0.300696        -1.893244         0.532440
 H         2.203654        -0.504091        -2.079625
 H         1.592096         1.271889        -1.680055
 H         4.700878        -0.426878        -2.020859
 H         5.409773        -0.416133        -0.424239
 H         3.397259        -0.669292         1.535527
 H         3.667131         1.831167         1.259354
 H         2.654153         2.673153        -0.120605
