19
Iteration:  2902charge 0 multiplicity 1
 C         0.171805        -0.754081         0.397230
 C         1.525237        -0.187452         0.307275
 C         1.836023         0.816121        -0.887436
 C         3.343728         0.556985        -0.310243
 C         4.364955        -0.170875        -1.263191
 O         3.380062        -1.291966        -1.223053
 C         2.853740        -0.885698         0.033699
 C         3.309270         1.187661         1.066714
 O         1.949745         0.632467         1.481475
 H        -0.076421        -1.088042         1.455313
 H        -0.458456         0.057509         0.105603
 H         0.020486        -1.623314        -0.212355
 H         1.670961         0.274518        -1.733894
 H         1.380463         1.783156        -0.871370
 H         4.445751         0.225117        -2.265719
 H         5.372622        -0.454609        -0.891205
 H         3.414004        -1.378937         0.901590
 H         4.103282         0.872599         1.823813
 H         3.146176         2.309735         0.985773
