19
Iteration:  2852
 C         0.240253        -0.779838         0.565310
 C         1.501011        -0.040758         0.188554
 C         1.913294         0.811477        -1.004695
 C         3.369768         0.544417        -0.235453
 C         4.293610        -0.206117        -1.285198
 O         3.436126        -1.369545        -1.229315
 C         2.865875        -0.819217         0.070264
 C         3.220156         1.205183         1.142276
 O         1.894640         0.580693         1.420972
 H         0.308108        -1.832215         0.576491
 H        -0.218051        -0.139754         1.420922
 H        -0.489553        -0.596300        -0.259212
 H         1.967932         0.257910        -2.115227
 H         1.438344         1.904708        -0.920804
 H         4.393382         0.346451        -2.271217
 H         5.324720        -0.459881        -0.949811
 H         3.125764        -1.405000         0.915064
 H         3.965611         0.878300         1.799892
 H         3.196829         2.259727         1.005234
