19
Iteration:  2809
 C         0.097795        -0.651477         0.483603
 C         1.532247        -0.166600         0.287185
 C         1.774187         0.733363        -0.885483
 C         3.370576         0.435732        -0.284208
 C         4.353417        -0.136864        -1.162527
 O         3.544274        -1.367858        -1.331906
 C         2.831464        -0.954900         0.087837
 C         3.275313         1.265748         1.019903
 O         1.940951         0.702023         1.421498
 H         0.180184        -1.542358        -0.103177
 H        -0.030638        -1.030973         1.549143
 H        -0.804324        -0.121531         0.159290
 H         1.567679         0.291278        -2.041003
 H         1.424062         1.889004        -0.643148
 H         4.359315         0.471238        -2.135400
 H         5.440390        -0.310509        -0.860770
 H         3.378759        -1.445499         0.920519
 H         3.970267         1.020475         1.802344
 H         3.089040         2.305886         0.919465
