19
Iteration:  4178
 C         0.042339        -0.670181         0.505565
 C         1.460689        -0.113401         0.212924
 C         1.926051         1.012181        -0.646362
 C         3.343658         0.494448        -0.247221
 C         4.282534         0.032866        -1.321249
 O         3.450036        -1.065649        -1.590364
 C         2.717174        -0.922163        -0.204206
 C         3.405605         0.772760         1.216038
 O         2.064776         0.375927         1.664751
 H        -0.849658        -0.662628        -0.174689
 H         0.034757        -1.751324         0.882850
 H        -0.423433        -0.102213         1.434060
 H         1.601400         0.895845        -1.693677
 H         1.687201         2.048750        -0.441032
 H         4.383449         0.693800        -2.270790
 H         5.336548        -0.254965        -1.040480
 H         3.069260        -1.901757         0.343913
 H         4.330299         0.196801         1.624404
 H         3.613878         1.772652         1.511312
