19
Iteration:  1240charge 0 multiplicity 1
 C         0.170532        -0.805022         0.557528
 C         1.436917        -0.155666         0.174221
 C         2.038138         0.096022        -1.216662
 C         3.309375         0.434310        -0.409383
 C         4.561994        -0.410103        -0.848352
 O         3.853422        -1.575048        -0.206578
 C         2.846386        -0.651238         0.525688
 C         2.849051         1.722954         0.202962
 O         1.672133         1.168545         0.814450
 H         0.174472        -1.908298         0.756116
 H        -0.193953        -0.277141         1.474935
 H        -0.756093        -0.665965        -0.131989
 H         2.231230        -0.726542        -1.891066
 H         1.566222         0.950659        -1.782575
 H         4.409002        -0.459242        -1.929831
 H         5.688235        -0.130766        -0.556186
 H         3.065835        -0.517053         1.629182
 H         3.447436         2.117382         1.031912
 H         2.571555         2.527822        -0.583393
