19
Iteration:  2161charge 0 multiplicity 1
 C         0.107469        -0.786871         0.470073
 C         1.480487        -0.149270         0.264317
 C         1.952827         0.571640        -1.035157
 C         3.307121         0.508312        -0.372314
 C         4.379555        -0.286154        -1.090175
 O         3.603148        -1.511808        -0.997488
 C         2.916218        -0.875995         0.185755
 C         3.153732         1.531711         0.800706
 O         1.834781         0.910687         1.369252
 H         0.180506        -1.851919         0.000571
 H        -0.187469        -0.824356         1.538423
 H        -0.756877        -0.326764        -0.093691
 H         1.848943        -0.031785        -1.940443
 H         1.579684         1.543362        -1.149431
 H         4.638307        -0.204166        -2.134321
 H         5.258035        -0.403729        -0.380588
 H         3.144002        -1.203299         1.143324
 H         3.970901         1.451224         1.549429
 H         2.905776         2.489812         0.405108
