19
Iteration:  3460
 C         0.131486        -0.702631         0.448434
 C         1.557258        -0.177699         0.168171
 C         1.986898         0.907423        -0.742476
 C         3.396382         0.552372        -0.207272
 C         4.230070        -0.066681        -1.399592
 O         3.225097        -1.080383        -1.433326
 C         2.843524        -0.931947        -0.067545
 C         3.360552         1.022248         1.272019
 O         2.019894         0.372704         1.554070
 H        -0.107792        -1.715972        -0.024122
 H         0.080942        -0.868320         1.549487
 H        -0.559906         0.101855         0.183679
 H         2.028546         0.650998        -1.754437
 H         1.597040         1.965861        -0.717138
 H         4.199545         0.538615        -2.330319
 H         5.230324        -0.426896        -1.032745
 H         3.239964        -1.605873         0.730024
 H         4.174920         0.602943         1.973225
 H         3.273190         2.017574         1.383710
