19
Iteration:   971charge 0 multiplicity 1
 C         0.266137        -0.724969         0.621065
 C         1.542266        -0.233593         0.156762
 C         2.044145        -0.060220        -1.320747
 C         3.296309         0.473075        -0.576205
 C         4.493775        -0.454727        -0.701780
 O         3.863514        -1.527127         0.022636
 C         2.907683        -0.513652         0.599792
 C         2.702388         1.714164         0.048286
 O         1.586515         1.176655         0.688239
 H        -0.457625        -0.636164        -0.180751
 H         0.230525        -1.745286         0.919646
 H        -0.103854        -0.113739         1.457339
 H         2.365786        -1.033110        -1.698088
 H         1.736821         0.624490        -2.088303
 H         4.874024        -0.740579        -1.727899
 H         5.405457        -0.079059        -0.188571
 H         2.978445        -0.294218         1.703344
 H         3.426932         1.933618         0.704085
 H         2.465965         2.477037        -0.626086
