19
Iteration:  4416
 C         0.122059        -0.742728         0.473275
 C         1.484452        -0.086714         0.260070
 C         1.976347         1.142843        -0.533692
 C         3.366706         0.474002        -0.226829
 C         4.199108         0.026917        -1.378194
 O         3.325497        -1.162598        -1.629886
 C         2.793810        -0.902291        -0.205132
 C         3.448637         0.795838         1.256380
 O         2.017544         0.366161         1.585559
 H        -0.362528        -1.138938        -0.388549
 H         0.501128        -1.541513         1.133481
 H        -0.490421        -0.120608         1.021700
 H         1.652280         1.176970        -1.848776
 H         1.834239         2.179627        -0.164710
 H         4.371295         0.710621        -2.251809
 H         5.176074        -0.352182        -0.978644
 H         2.952667        -1.585949         0.522293
 H         3.892030         0.200368         2.016738
 H         3.444562         1.892699         1.444842
