19
Iteration:  3650
 C         0.192481        -0.747208         0.444289
 C         1.533466        -0.119274         0.236745
 C         1.949116         1.073020        -0.555365
 C         3.349771         0.468355        -0.164273
 C         4.211211         0.004748        -1.336366
 O         3.321372        -1.137942        -1.566471
 C         2.706599        -0.935262        -0.261605
 C         3.427918         0.835911         1.271432
 O         2.034967         0.460979         1.543473
 H        -0.591546        -0.015441         0.582743
 H         0.092446        -1.566146        -0.449967
 H         0.190409        -1.246857         1.473575
 H         1.654874         0.909155        -1.658377
 H         1.602427         1.983303        -0.180544
 H         4.074162         0.732990        -2.220031
 H         5.268400        -0.249533        -1.093433
 H         2.988322        -1.712122         0.473709
 H         4.252479         0.263957         1.950134
 H         3.473244         1.945563         1.421488
