19
Iteration:  3138
 C         0.144669        -0.654685         0.526669
 C         1.565121        -0.162358         0.276155
 C         1.944528         0.774773        -0.823127
 C         3.376752         0.507244        -0.221524
 C         4.297195        -0.020269        -1.275401
 O         3.356231        -1.250487        -1.360070
 C         2.831403        -0.936514        -0.067130
 C         3.267331         1.089774         1.120914
 O         1.971127         0.540755         1.432964
 H         0.061449        -1.781042         0.463176
 H        -0.256279        -0.378171         1.509492
 H        -0.566220        -0.058694        -0.154980
 H         1.967395         0.238141        -1.792408
 H         1.574844         1.735046        -0.797441
 H         4.378972         0.586228        -2.162094
 H         5.177571        -0.415545        -0.849620
 H         3.132363        -1.678775         0.695676
 H         4.014471         0.808871         1.942426
 H         3.308161         2.298342         1.094295
