19
Iteration:  1760
 C         0.166059        -0.746031         0.540397
 C         1.452712        -0.163019         0.170708
 C         1.960020         0.410565        -1.151301
 C         3.368067         0.516725        -0.396850
 C         4.390505        -0.358225        -1.034518
 O         3.724537        -1.540977        -0.606547
 C         2.950653        -0.761905         0.413137
 C         2.963928         1.586746         0.553431
 O         1.779690         0.932606         1.083771
 H        -0.147712        -0.169508         1.438174
 H        -0.634935        -0.583680        -0.216004
 H         0.332158        -1.835781         0.683213
 H         1.759463        -0.384719        -1.938790
 H         1.502867         1.320530        -1.463147
 H         4.518043        -0.358998        -2.136143
 H         5.396985        -0.297574        -0.667217
 H         3.101747        -1.007665         1.461472
 H         3.538272         1.749105         1.469606
 H         2.704302         2.661554         0.160870
