19
Iteration:   368
 C         0.257826        -0.730674         0.683047
 C         1.518478        -0.202439         0.147992
 C         2.109094        -0.542901        -1.193961
 C         3.331746         0.382849        -0.574922
 C         4.648888        -0.411900        -0.407987
 O         3.961477        -1.297271         0.518470
 C         3.006557        -0.280981         0.750634
 C         2.643022         1.619440        -0.473071
 O         1.301061         1.251617         0.113551
 H         0.057270        -0.471557         1.736605
 H        -0.613726        -0.297653         0.063350
 H         0.266420        -1.850099         0.631163
 H         2.438816        -1.595338        -1.380215
 H         1.644776        -0.168509        -2.121978
 H         5.059044        -0.936040        -1.356630
 H         5.370845         0.137253         0.228552
 H         3.153327         0.413159         1.676357
 H         3.140076         2.511216         0.131807
 H         2.248906         2.181501        -1.328583
