19
Iteration:  1809charge 0 multiplicity 1
 C         0.191365        -0.841376         0.551647
 C         1.489037        -0.132853         0.243627
 C         1.905695         0.332697        -1.215700
 C         3.281771         0.506362        -0.439641
 C         4.432456        -0.354413        -0.993064
 O         3.581083        -1.457040        -0.667619
 C         2.969645        -0.704421         0.367866
 C         3.134768         1.522368         0.653262
 O         1.724391         1.017658         1.046345
 H        -0.692811        -0.220252         0.349852
 H         0.092030        -1.805991         0.035226
 H         0.373169        -1.037680         1.636408
 H         2.142965        -0.367156        -1.941662
 H         1.218339         1.162857        -1.624655
 H         4.719136        -0.169802        -2.014404
 H         5.365920        -0.431581        -0.385247
 H         3.304045        -0.842270         1.406241
 H         3.844734         1.459702         1.537871
 H         3.037870         2.527793         0.486087
