19
Iteration:  4070charge 0 multiplicity 1
 C         0.087009        -0.737889         0.438814
 C         1.546696        -0.144094         0.198593
 C         1.918096         1.059086        -0.578434
 C         3.442144         0.569266        -0.189038
 C         4.229926         0.025602        -1.435042
 O         3.218063        -1.064866        -1.509622
 C         2.810018        -0.824710        -0.135757
 C         3.412186         0.780699         1.327275
 O         2.053307         0.284180         1.496040
 H        -0.115688        -1.540211        -0.142482
 H         0.142167        -1.032930         1.444313
 H        -0.604989         0.075020         0.379755
 H         1.904341         0.814619        -1.700435
 H         1.719730         2.198317        -0.195128
 H         4.225037         0.709982        -2.261342
 H         5.212198        -0.365335        -1.308989
 H         3.307623        -1.696088         0.470567
 H         4.047648         0.009699         1.845314
 H         3.616095         1.758589         1.718897
