19
Iteration:    67
 C         0.191018        -0.714404         0.740031
 C         1.560589        -0.300542         0.156793
 C         2.344015        -0.723213        -1.227659
 C         3.362369         0.338220        -0.602002
 C         4.647656        -0.432461        -0.312025
 O         3.915490        -1.096056         0.748695
 C         2.953195        -0.080073         0.798966
 C         2.527055         1.613769        -0.709529
 O         1.264588         1.187023        -0.030307
 H        -0.511984        -0.565817        -0.066646
 H         0.251578        -1.753774         1.099496
 H        -0.103758        -0.050096         1.569742
 H         2.747418        -1.731840        -1.217943
 H         1.882305        -0.458949        -2.160694
 H         4.930039        -1.145170        -1.053911
 H         5.561221         0.085973         0.058536
 H         3.084965         0.665827         1.590604
 H         3.010832         2.379353        -0.182347
 H         2.384517         1.903898        -1.688761
