19
Iteration:  4093charge 0 multiplicity 1
 C         0.166036        -0.716314         0.351400
 C         1.558132        -0.127491         0.294953
 C         1.935637         1.037185        -0.618964
 C         3.348610         0.537345        -0.189266
 C         4.151930         0.051275        -1.422232
 O         3.266190        -1.108171        -1.583777
 C         2.749327        -0.910942        -0.153047
 C         3.499213         0.787982         1.311084
 O         2.025346         0.371066         1.653197
 H         0.179201        -1.271946        -0.526345
 H         0.048168        -1.393018         1.137551
 H        -0.578000         0.045233         0.364578
 H         1.768219         0.910905        -1.698118
 H         1.717998         2.161170        -0.208959
 H         4.188958         0.648791        -2.280968
 H         5.158715        -0.236576        -1.138620
 H         3.142647        -1.752530         0.552586
 H         4.288380         0.126624         1.719599
 H         3.662931         1.822477         1.637038
