19
Iteration:  1842charge 0 multiplicity 1
 C         0.188561        -0.812292         0.511637
 C         1.484633        -0.168884         0.233832
 C         1.936360         0.434534        -1.110834
 C         3.333527         0.525626        -0.361931
 C         4.410122        -0.401280        -1.086560
 O         3.676611        -1.563351        -0.728831
 C         2.959437        -0.813158         0.348307
 C         3.022736         1.648032         0.639391
 O         1.734886         1.042969         1.118241
 H        -0.642383        -0.741589        -0.196022
 H         0.419061        -1.830842         0.876955
 H        -0.226174        -0.206692         1.358768
 H         2.014169        -0.266169        -1.879842
 H         1.335328         1.350907        -1.480628
 H         4.546145        -0.320657        -2.146039
 H         5.310801        -0.512031        -0.481440
 H         3.356008        -1.143633         1.329486
 H         3.651091         1.648132         1.606898
 H         2.784900         2.580431         0.258349
