19
Iteration:  1136charge 0 multiplicity 1
 C         0.199244        -0.746782         0.614976
 C         1.544957        -0.165025         0.155520
 C         2.035582         0.031953        -1.276987
 C         3.335000         0.497513        -0.519416
 C         4.551332        -0.500759        -0.763310
 O         3.834358        -1.529551        -0.173818
 C         2.970404        -0.637071         0.626637
 C         2.736860         1.752732         0.173214
 O         1.556805         1.142673         0.703288
 H        -0.464440         0.104475         0.892662
 H        -0.348419        -1.261676        -0.215943
 H         0.302642        -1.422872         1.436262
 H         2.050943        -0.880166        -1.823802
 H         1.399372         0.836284        -1.782494
 H         4.897765        -0.740271        -1.852036
 H         5.466151        -0.317108        -0.092243
 H         3.198857        -0.373412         1.706280
 H         3.394907         1.936019         1.102885
 H         2.521097         2.702530        -0.403492
