19
Iteration:   177
 C         0.155878        -0.767854         0.723114
 C         1.465681        -0.233368         0.148232
 C         2.212704        -0.610422        -1.091778
 C         3.321478         0.376462        -0.523250
 C         4.665011        -0.443668        -0.452471
 O         4.059036        -1.146131         0.720038
 C         2.941154        -0.282383         0.807316
 C         2.629788         1.711755        -0.686862
 O         1.302332         1.247927        -0.050811
 H        -0.098460        -0.507050         1.741339
 H        -0.684659        -0.403521         0.061023
 H         0.199891        -1.874857         0.664197
 H         2.547023        -1.652721        -1.141309
 H         1.821540        -0.280567        -2.029466
 H         4.829933        -1.111758        -1.261703
 H         5.681663        -0.037096        -0.147070
 H         2.880526         0.072301         1.816587
 H         3.001242         2.526629        -0.231205
 H         2.494872         1.839568        -1.693984
