19
Iteration:  3140
 C         0.155117        -0.663683         0.509637
 C         1.578815        -0.144051         0.268466
 C         1.943345         0.762894        -0.839205
 C         3.379780         0.515486        -0.222003
 C         4.291186        -0.011256        -1.295760
 O         3.342714        -1.247743        -1.352711
 C         2.822191        -0.950702        -0.048739
 C         3.270074         1.084828         1.143532
 O         1.973204         0.536575         1.427366
 H         0.078582        -1.834493         0.490724
 H        -0.256671        -0.292901         1.487595
 H        -0.634281        -0.024878        -0.166168
 H         1.951799         0.269224        -1.680997
 H         1.504506         1.707186        -0.794473
 H         4.423027         0.595183        -2.168309
 H         5.155445        -0.452486        -0.816045
 H         3.216132        -1.651752         0.739585
 H         4.055620         0.818258         1.953615
 H         3.319205         2.296877         1.120869
