19
Iteration:  2602
 C         0.137161        -0.752527         0.512704
 C         1.550438        -0.176787         0.228358
 C         1.963923         0.682155        -1.042535
 C         3.410769         0.577969        -0.285167
 C         4.377609        -0.294284        -1.260051
 O         3.419950        -1.399314        -1.111030
 C         2.899823        -0.768242         0.107998
 C         3.106855         1.347423         1.041443
 O         1.876972         0.710128         1.416784
 H         0.019190        -0.913501         1.591514
 H        -0.753626        -0.047654         0.199565
 H        -0.006900        -1.768068         0.021132
 H         1.979111         0.121148        -2.030894
 H         1.488933         1.668093        -1.185688
 H         4.510399         0.067297        -2.308657
 H         5.297790        -0.795067        -1.024070
 H         3.516898        -1.239774         1.015530
 H         3.932812         1.206417         1.862641
 H         3.057953         2.517958         0.897244
