19
Iteration:  4804
 C         0.120403        -0.627184         0.480197
 C         1.529717        -0.144229         0.309046
 C         1.929509         0.964009        -0.682631
 C         3.421141         0.490823        -0.153035
 C         4.231258         0.042832        -1.348334
 O         3.254199        -1.030618        -1.639919
 C         2.781019        -0.985317        -0.230156
 C         3.395633         0.888727         1.290779
 O         2.067547         0.289465         1.597523
 H        -0.284362        -0.796640        -0.501521
 H         0.209064        -1.490448         1.045360
 H        -0.500825         0.110824         0.907334
 H         1.784443         0.662688        -1.647070
 H         1.633871         1.992113        -0.386192
 H         4.452646         0.829463        -2.029535
 H         5.127453        -0.371845        -1.034410
 H         3.079406        -1.900690         0.456849
 H         4.211670         0.447473         1.970373
 H         3.386743         1.992527         1.456521
