19
Iteration:  1515charge 0 multiplicity 1
 C         0.130764        -0.844626         0.605102
 C         1.517067        -0.168209         0.205559
 C         2.063858         0.278394        -1.214621
 C         3.409890         0.524775        -0.403719
 C         4.497772        -0.441361        -0.980930
 O         3.627254        -1.531056        -0.454427
 C         2.961393        -0.638092         0.396679
 C         2.905248         1.683865         0.476398
 O         1.678148         1.056940         0.937047
 H        -0.291730        -0.306832         1.506599
 H        -0.616558        -0.947953        -0.199912
 H         0.301575        -1.883932         0.854536
 H         2.257082        -0.621296        -1.974622
 H         1.525891         1.055006        -1.750069
 H         4.471413        -0.593382        -2.045540
 H         5.472268        -0.474820        -0.496366
 H         3.227390        -0.759089         1.500742
 H         3.495866         1.778134         1.392595
 H         2.595085         2.790120         0.043963
