19
Iteration:   340
 C         0.110257        -0.798806         0.764552
 C         1.481715        -0.326527         0.085067
 C         2.178801        -0.506237        -1.299434
 C         3.329748         0.406890        -0.576448
 C         4.592275        -0.448902        -0.417293
 O         4.055184        -1.249997         0.632679
 C         2.880627        -0.318794         0.785917
 C         2.591994         1.755847        -0.616725
 O         1.532319         1.272752         0.195322
 H         0.234690        -1.284856         1.727754
 H        -0.598015         0.006397         0.855490
 H        -0.326731        -1.549843         0.128151
 H         2.535990        -1.474920        -1.602135
 H         1.708601        -0.037183        -2.157363
 H         4.935422        -0.973526        -1.262063
 H         5.405262         0.151492         0.015690
 H         2.835713         0.187862         1.691427
 H         2.941474         2.600392        -0.156406
 H         2.108001         2.045439        -1.615106
