19
Iteration:  3577
 C         0.054006        -0.634297         0.446269
 C         1.472848        -0.238989         0.287428
 C         1.925777         0.916823        -0.595742
 C         3.383388         0.464745        -0.199852
 C         4.257379         0.059931        -1.296122
 O         3.347909        -1.070791        -1.562494
 C         2.799696        -1.003778        -0.190154
 C         3.396450         0.966638         1.125377
 O         2.098232         0.359686         1.620202
 H        -0.269392        -0.497027         1.484905
 H        -0.614681         0.175988        -0.021919
 H        -0.110617        -1.601352        -0.138794
 H         1.744807         0.803268        -1.618883
 H         1.728566         1.991896        -0.190515
 H         4.272373         0.741239        -2.107393
 H         5.228785        -0.345110        -0.984325
 H         3.224761        -1.859103         0.359637
 H         4.132843         0.679917         1.833401
 H         3.207717         2.083585         1.089117
