19
Iteration:  4002charge 0 multiplicity 1
 C         0.093966        -0.625488         0.482888
 C         1.543775        -0.260797         0.245152
 C         1.943959         1.039989        -0.690966
 C         3.334297         0.553179        -0.220687
 C         4.273004         0.050730        -1.301182
 O         3.231595        -1.074607        -1.603308
 C         2.871426        -0.906298        -0.227677
 C         3.353369         0.859931         1.291355
 O         2.084145         0.272141         1.622128
 H        -0.404534        -0.714327        -0.409499
 H        -0.047823        -1.499715         1.119273
 H        -0.289001         0.249517         0.986312
 H         1.734903         0.690161        -1.848069
 H         1.675998         2.110949        -0.273196
 H         4.429561         0.619071        -2.249725
 H         5.140647        -0.448604        -0.994111
 H         3.357601        -1.641705         0.577555
 H         4.209417         0.266278         1.713683
 H         3.327707         1.844905         1.680275
