19
Iteration:  1839
 C         0.204272        -0.815065         0.510141
 C         1.495955        -0.151626         0.234307
 C         1.952730         0.410721        -1.110302
 C         3.317525         0.541883        -0.406572
 C         4.403024        -0.388721        -1.061039
 O         3.647199        -1.575380        -0.732493
 C         2.979128        -0.820593         0.348872
 C         3.008731         1.620560         0.675254
 O         1.746573         1.060556         1.107099
 H        -0.665495        -0.703024        -0.233271
 H         0.398741        -1.852814         0.836351
 H        -0.137155        -0.238325         1.398713
 H         2.039909        -0.331610        -1.897398
 H         1.366594         1.242259        -1.463120
 H         4.525338        -0.277856        -2.135836
 H         5.290677        -0.411332        -0.465743
 H         3.274968        -1.123435         1.327188
 H         3.691273         1.659123         1.592736
 H         2.735786         2.690385         0.321462
