19
Iteration:   365charge 0 multiplicity 1
 C         0.237742        -0.729173         0.677410
 C         1.517912        -0.213245         0.147673
 C         2.116302        -0.514556        -1.196977
 C         3.344290         0.360750        -0.584025
 C         4.682308        -0.424063        -0.408188
 O         3.961910        -1.297497         0.533990
 C         3.000209        -0.276556         0.745273
 C         2.626759         1.638970        -0.504513
 O         1.300750         1.239060         0.135649
 H         0.112330        -0.515353         1.818255
 H        -0.594341        -0.216043         0.176886
 H         0.126021        -1.856365         0.590689
 H         2.472138        -1.551863        -1.398947
 H         1.660225        -0.132167        -2.149745
 H         5.064717        -0.949974        -1.302840
 H         5.452337         0.177414         0.182775
 H         3.085686         0.359586         1.675242
 H         3.130492         2.516581         0.124001
 H         2.136097         2.190985        -1.376634
