19
Iteration:    20
 C         0.132420        -0.937729         0.728679
 C         1.462437        -0.293054         0.230554
 C         2.110956        -0.673217        -1.090200
 C         3.314811         0.205972        -0.604986
 C         4.705723        -0.223223        -0.343836
 O         4.023427        -1.139952         0.825987
 C         2.838041        -0.094751         0.855919
 C         2.734602         1.566372        -0.814377
 O         1.371276         1.339860        -0.199939
 H        -0.465679        -0.075185         1.204426
 H        -0.366705        -1.509069        -0.083624
 H         0.357655        -1.659127         1.554602
 H         2.394853        -1.704032        -1.317228
 H         1.627776        -0.177599        -1.975530
 H         5.407477        -0.806148        -1.073691
 H         5.316218         0.543885         0.131222
 H         3.002050         0.524909         1.715525
 H         3.320453         2.320111        -0.344433
 H         2.655027         1.940860        -1.793756
