19
Iteration:  4351
 C         0.050748        -0.638879         0.399725
 C         1.550074        -0.193487         0.336879
 C         1.929549         0.946596        -0.561705
 C         3.450386         0.503137        -0.229456
 C         4.305759         0.040596        -1.378301
 O         3.246519        -1.070208        -1.606747
 C         2.769704        -0.941084        -0.185457
 C         3.373250         0.943018         1.259914
 O         2.097728         0.295148         1.628568
 H        -0.408772        -0.280840        -0.490006
 H        -0.268954        -1.704382         0.503985
 H        -0.360185        -0.132098         1.243681
 H         1.479698         0.905694        -1.674165
 H         1.595744         1.917280        -0.268488
 H         4.516939         0.730524        -2.240082
 H         5.192141        -0.369506        -0.957639
 H         3.288752        -1.978263         0.273317
 H         4.219963         0.509227         1.778061
 H         3.239901         2.055748         1.338874
