19
Iteration:  1504charge 0 multiplicity 1
 C         0.237833        -0.830989         0.603103
 C         1.495693        -0.170758         0.144285
 C         2.044100         0.294993        -1.294645
 C         3.317706         0.585890        -0.466787
 C         4.442461        -0.503809        -0.965820
 O         3.653553        -1.556064        -0.403908
 C         2.958638        -0.654614         0.468738
 C         2.927145         1.667114         0.481331
 O         1.635125         1.015051         0.997389
 H        -0.170022        -0.445549         1.599769
 H        -0.473851        -0.390602        -0.142056
 H         0.284231        -1.896015         0.631998
 H         2.333938        -0.506199        -2.148475
 H         1.583564         1.186354        -1.716610
 H         4.676466        -0.328718        -1.991623
 H         5.406736        -0.414511        -0.469954
 H         3.421973        -0.660437         1.511774
 H         3.698778         1.868103         1.224927
 H         2.685694         2.767872        -0.065991
