19
Iteration:  1390charge 0 multiplicity 1
 C         0.138469        -0.902880         0.601325
 C         1.418795        -0.104883         0.205974
 C         1.961213         0.209510        -1.250905
 C         3.340792         0.505185        -0.440641
 C         4.504618        -0.388023        -0.864410
 O         3.842412        -1.597442        -0.351757
 C         2.865362        -0.657340         0.466271
 C         2.999855         1.676507         0.323616
 O         1.644204         1.140616         0.900424
 H        -0.299901        -1.103653        -0.336481
 H         0.088765        -1.737583         1.274568
 H        -0.564925        -0.105184         0.935023
 H         1.999263        -0.624897        -1.913323
 H         1.414025         1.058157        -1.796975
 H         4.781452        -0.516499        -1.938219
 H         5.457978        -0.205003        -0.357262
 H         3.199073        -0.916653         1.483788
 H         3.616765         1.938255         1.232143
 H         2.930426         2.649848        -0.284485
