19
Iteration:  4773charge 0 multiplicity 1
 C         0.036741        -0.538859         0.500367
 C         1.518179        -0.202750         0.292713
 C         1.905932         0.949124        -0.631571
 C         3.388576         0.527174        -0.219986
 C         4.277018         0.039031        -1.430630
 O         3.339157        -1.058812        -1.563355
 C         2.869773        -0.972162        -0.223308
 C         3.406788         0.884175         1.209110
 O         2.017848         0.225719         1.647080
 H        -0.622300        -0.447631        -0.345613
 H        -0.130021        -1.481399         0.832674
 H        -0.338242         0.014189         1.242438
 H         1.653307         0.986820        -1.699104
 H         1.615149         2.041693        -0.291997
 H         4.406956         0.884319        -2.091913
 H         5.307448        -0.298076        -1.046965
 H         3.180543        -1.786448         0.435888
 H         4.203075         0.398900         1.850912
 H         3.332110         1.954351         1.365277
