19
Iteration:   285charge 0 multiplicity 1
 C         0.196485        -0.864970         0.710541
 C         1.543098        -0.279356         0.207087
 C         2.171411        -0.592312        -1.088391
 C         3.330081         0.382800        -0.595980
 C         4.665738        -0.409390        -0.462845
 O         3.911494        -1.281540         0.582684
 C         2.982055        -0.214853         0.793998
 C         2.684541         1.758051        -0.508868
 O         1.300266         1.301751        -0.069759
 H        -0.101109        -1.790144         0.251637
 H         0.222700        -0.974969         1.815081
 H        -0.531384        -0.086024         0.528651
 H         2.468392        -1.621631        -1.108732
 H         1.516401        -0.341276        -1.893785
 H         4.987134        -0.981009        -1.297388
 H         5.517008         0.063111         0.058109
 H         3.161255         0.466245         1.535653
 H         2.943492         2.387825         0.292053
 H         2.699157         2.392929        -1.485724
