19
Iteration:  3401charge 0 multiplicity 1
 C         0.010481        -0.699471         0.503412
 C         1.480613        -0.170735         0.269895
 C         1.866429         0.972916        -0.773614
 C         3.304202         0.560293        -0.309937
 C         4.300795        -0.004028        -1.267986
 O         3.435388        -1.247935        -1.407226
 C         2.792537        -0.889336        -0.109600
 C         3.390193         0.968727         1.149852
 O         2.107947         0.393509         1.539064
 H        -0.495571        -0.255523        -0.284108
 H        -0.179465        -1.643938         0.576872
 H        -0.488911        -0.255099         1.361673
 H         1.754071         0.579587        -1.886557
 H         1.593100         2.080360        -0.504565
 H         4.340482         0.561532        -2.233311
 H         5.393301        -0.244168        -0.964251
 H         3.234603        -1.430450         0.740728
 H         4.216340         0.475167         1.712993
 H         3.353844         2.110694         1.381578
