19
Iteration:  2514
 C         0.183910        -0.652152         0.513063
 C         1.518791        -0.169044         0.173374
 C         1.918701         0.646918        -1.014400
 C         3.329879         0.489864        -0.293870
 C         4.293077        -0.157767        -1.289918
 O         3.563123        -1.438296        -1.035753
 C         2.894606        -0.885118         0.171277
 C         3.164913         1.316017         0.994153
 O         1.869502         0.734802         1.349438
 H         0.171480        -1.754460         0.660876
 H         0.035614        -0.117901         1.560844
 H        -0.621056        -0.402521        -0.253420
 H         1.925981        -0.002946        -1.930953
 H         1.458202         1.590157        -1.201445
 H         4.397791         0.338535        -2.280218
 H         5.261953        -0.435816        -0.883720
 H         3.006102        -1.519342         1.105538
 H         3.828556         1.211062         1.897920
 H         3.124296         2.458798         0.821736
