19
Iteration:  3880
 C         0.114599        -0.658894         0.595858
 C         1.490755        -0.123096         0.320512
 C         2.003508         1.034497        -0.580940
 C         3.373011         0.475518        -0.186628
 C         4.235124         0.081100        -1.355394
 O         3.396109        -1.106018        -1.626908
 C         2.680224        -0.941736        -0.263729
 C         3.358969         0.826198         1.227387
 O         2.051058         0.286208         1.509755
 H        -0.005579        -1.458876        -0.050326
 H        -0.147266        -0.902356         1.585464
 H        -0.512632         0.127605         0.311167
 H         1.838305         0.907135        -1.806712
 H         1.787985         2.061712        -0.076079
 H         4.299547         0.912496        -2.096061
 H         5.198302        -0.123177        -0.989513
 H         2.889514        -1.923408         0.282221
 H         4.221364         0.461599         1.781370
 H         3.356802         1.899523         1.396071
