19
Iteration:  4074
 C         0.110008        -0.738923         0.428917
 C         1.527298        -0.129884         0.215561
 C         1.898172         1.078333        -0.618833
 C         3.457373         0.546323        -0.203222
 C         4.248952         0.056779        -1.422289
 O         3.194435        -1.083398        -1.484445
 C         2.840450        -0.830375        -0.139296
 C         3.407362         0.737918         1.319786
 O         2.076613         0.307341         1.519214
 H        -0.214744        -1.607806        -0.340591
 H         0.097316        -1.095919         1.494652
 H        -0.632787         0.080404         0.307514
 H         1.812419         0.911419        -1.615699
 H         1.632946         2.057840        -0.182677
 H         4.117609         0.769989        -2.243399
 H         5.289341        -0.420145        -1.365265
 H         3.260755        -1.561203         0.397008
 H         3.968893         0.006934         1.860346
 H         3.608682         1.809480         1.716707
