19
Iteration:  2663charge 0 multiplicity 1
 C         0.062109        -0.737194         0.513928
 C         1.456527        -0.157304         0.228579
 C         1.910795         0.766536        -0.952831
 C         3.376835         0.584143        -0.305452
 C         4.412356        -0.253727        -1.307720
 O         3.586944        -1.410702        -1.065839
 C         2.817549        -0.879222         0.094756
 C         3.179448         1.357828         0.979974
 O         1.916580         0.639727         1.395919
 H        -0.154768        -0.168058         1.437912
 H        -0.691207        -0.608091        -0.200673
 H         0.144104        -1.781182         0.762629
 H         1.779460         0.209305        -1.915489
 H         1.510944         1.802306        -1.072924
 H         4.451846         0.065637        -2.359388
 H         5.441185        -0.484055        -0.928444
 H         3.114770        -1.262623         0.990110
 H         3.929398         1.179111         1.663592
 H         2.989484         2.384012         0.888729
