19
Iteration:  2705
 C         0.174613        -0.773555         0.473196
 C         1.504809        -0.172249         0.242806
 C         1.890633         0.657118        -0.925120
 C         3.354576         0.520958        -0.294448
 C         4.353654        -0.206308        -1.181738
 O         3.469027        -1.344141        -1.175165
 C         2.836743        -0.884766         0.098456
 C         3.232828         1.368128         0.952951
 O         1.928822         0.740174         1.412273
 H        -0.611896         0.057483         0.755393
 H        -0.144355        -1.163768        -0.503709
 H         0.078600        -1.569092         1.255251
 H         1.915065         0.173570        -1.829983
 H         1.427438         1.589895        -0.932783
 H         4.504317         0.180274        -2.169093
 H         5.286770        -0.441287        -0.700490
 H         3.089797        -1.596473         0.857519
 H         3.963469         1.051264         1.716441
 H         3.107669         2.449926         0.924489
