19
Iteration:  1721charge 0 multiplicity 1
 C         0.157470        -0.731910         0.487450
 C         1.534846        -0.129830         0.265500
 C         1.877116         0.218512        -1.108823
 C         3.264396         0.478757        -0.443949
 C         4.413816        -0.302607        -1.011489
 O         3.760369        -1.549728        -0.662969
 C         2.950251        -0.751460         0.424035
 C         3.010407         1.546332         0.591562
 O         1.721796         1.092485         1.026967
 H         0.131396        -1.262355         1.483962
 H        -0.600720         0.052700         0.567602
 H        -0.171595        -1.439694        -0.265407
 H         1.925640        -0.641199        -1.811940
 H         1.395539         1.124177        -1.539653
 H         4.632169        -0.109332        -2.075791
 H         5.311625        -0.168351        -0.319199
 H         3.400986        -1.064602         1.404323
 H         3.818330         1.500267         1.461501
 H         3.098065         2.574336         0.381707
