19
Iteration:  4150charge 0 multiplicity 1
 C         0.109777        -0.604442         0.550016
 C         1.585124        -0.137516         0.216451
 C         1.966635         0.958962        -0.637873
 C         3.412418         0.598020        -0.186828
 C         4.240415         0.012030        -1.307345
 O         3.243418        -1.081332        -1.574962
 C         2.831157        -0.893418        -0.243479
 C         3.311649         0.850397         1.300587
 O         2.060660         0.229367         1.495124
 H        -0.673190        -0.406268        -0.226644
 H         0.159693        -1.666361         0.717808
 H        -0.352502        -0.124374         1.371191
 H         1.847791         0.609765        -1.629880
 H         1.587151         2.088568        -0.375914
 H         4.447709         0.552248        -2.180947
 H         5.153441        -0.436410        -0.907147
 H         3.248049        -1.714532         0.394043
 H         4.164586         0.516779         1.838338
 H         3.219953         1.975517         1.525385
