19
Iteration:  1341charge 0 multiplicity 1
 C         0.207927        -0.807731         0.560865
 C         1.516931        -0.224032         0.177105
 C         2.027880         0.185860        -1.243150
 C         3.358127         0.544446        -0.435894
 C         4.507855        -0.511088        -0.872106
 O         3.685922        -1.550903        -0.308411
 C         2.939706        -0.618816         0.537355
 C         2.966857         1.787470         0.324848
 O         1.548256         1.085198         0.842994
 H        -0.796888        -0.193541         0.551636
 H         0.099743        -1.715781        -0.130371
 H         0.262404        -1.240792         1.592663
 H         2.076182        -0.667652        -1.947396
 H         1.476591         1.009660        -1.709016
 H         4.693944        -0.634483        -1.975741
 H         5.576614        -0.275111        -0.491930
 H         3.343551        -0.662397         1.550372
 H         3.735447         2.056425         1.190561
 H         2.633060         2.686521        -0.201336
