19
Iteration:  2452charge 0 multiplicity 1
 C         0.219937        -0.778108         0.474010
 C         1.606025        -0.127070         0.239241
 C         1.902188         0.596262        -1.058473
 C         3.296232         0.611317        -0.379158
 C         4.270045        -0.220404        -1.151270
 O         3.411957        -1.412974        -1.017459
 C         2.903592        -0.814251         0.171237
 C         3.217893         1.260153         0.965160
 O         1.888232         0.808921         1.316163
 H        -0.142929        -1.495070        -0.238290
 H         0.077864        -1.216583         1.497477
 H        -0.510115         0.057419         0.449759
 H         1.915586        -0.174533        -1.846776
 H         1.418509         1.523576        -1.436391
 H         4.654392         0.217161        -2.113097
 H         5.116086        -0.288905        -0.406702
 H         3.353940        -1.263585         1.001010
 H         4.107492         0.851553         1.603869
 H         3.365290         2.300810         1.139860
