19
Iteration:   759
 C         0.230304        -0.841094         0.629355
 C         1.453215        -0.161339         0.136108
 C         1.975017        -0.364212        -1.254604
 C         3.303048         0.435985        -0.613457
 C         4.606406        -0.463199        -0.557759
 O         3.930240        -1.448647         0.194345
 C         2.880910        -0.403624         0.662575
 C         2.825500         1.757507        -0.130780
 O         1.497673         1.312172         0.472244
 H        -0.414186        -0.108911         1.119357
 H        -0.442568        -1.204401        -0.227375
 H         0.511412        -1.601119         1.333899
 H         2.208915        -1.315349        -1.712979
 H         1.436925         0.267704        -2.123927
 H         4.935649        -0.849900        -1.547876
 H         5.431596         0.074963         0.017543
 H         3.149706        -0.238858         1.719241
 H         3.578088         2.107467         0.654981
 H         2.619443         2.725044        -0.782662
