19
Iteration:   399
 C         0.183570        -0.951047         0.782428
 C         1.454270        -0.295101         0.187808
 C         2.135582        -0.502655        -1.141638
 C         3.354996         0.444985        -0.610376
 C         4.603387        -0.389661        -0.513421
 O         3.922960        -1.297495         0.495348
 C         2.866576        -0.313101         0.807959
 C         2.769158         1.766243        -0.458658
 O         1.408066         1.364578         0.005534
 H        -0.509014        -0.088759         1.086662
 H        -0.266355        -1.582248        -0.033664
 H         0.537187        -1.673533         1.587327
 H         2.500195        -1.570956        -1.230362
 H         1.601145        -0.098526        -2.040876
 H         5.092557        -0.948426        -1.382684
 H         5.460200         0.028171         0.114841
 H         2.969648         0.087124         1.879970
 H         3.517754         2.372426         0.299986
 H         2.539740         2.487761        -1.377319
