19
Iteration:  1058charge 0 multiplicity 1
 C         0.119202        -0.860781         0.607971
 C         1.478337        -0.247010         0.126486
 C         2.009500        -0.003782        -1.320832
 C         3.347414         0.529427        -0.550455
 C         4.537335        -0.552756        -0.754367
 O         3.832494        -1.527783        -0.043587
 C         2.986802        -0.482138         0.611187
 C         2.778905         1.797022         0.135246
 O         1.614562         1.194084         0.716585
 H         0.446106        -1.578216         1.350237
 H        -0.405701        -0.008154         1.030437
 H        -0.452177        -1.309113        -0.177442
 H         2.082805        -0.812855        -2.009027
 H         1.704810         0.929868        -1.882489
 H         4.924401        -1.100923        -1.703203
 H         5.521126        -0.249871        -0.257968
 H         3.286556        -0.316785         1.698431
 H         3.394956         2.246475         1.017556
 H         2.409685         2.565794        -0.525014
