19
Iteration:   361charge 0 multiplicity 1
 C         0.208905        -0.742019         0.690898
 C         1.511395        -0.228146         0.154306
 C         2.137591        -0.487009        -1.214425
 C         3.349987         0.331676        -0.604039
 C         4.713010        -0.426373        -0.404735
 O         3.968044        -1.302529         0.551565
 C         2.973655        -0.262330         0.747667
 C         2.599632         1.702403        -0.537324
 O         1.318700         1.220024         0.159792
 H         0.204903        -0.573295         1.745223
 H        -0.592865        -0.141281         0.280315
 H        -0.010015        -1.773963         0.528920
 H         2.467435        -1.492538        -1.368250
 H         1.675142        -0.090949        -2.105590
 H         5.098138        -0.977543        -1.235370
 H         5.496433         0.161480         0.052271
 H         3.051362         0.242124         1.678166
 H         3.061634         2.375647         0.067292
 H         2.184784         2.126111        -1.437574
