19
Iteration:   348
 C         0.112468        -0.786792         0.760869
 C         1.478779        -0.307350         0.113780
 C         2.227057        -0.476637        -1.280922
 C         3.313056         0.383691        -0.634659
 C         4.671535        -0.448211        -0.418438
 O         4.044842        -1.289226         0.609708
 C         2.853032        -0.278744         0.785005
 C         2.533741         1.789518        -0.611952
 O         1.491834         1.218317         0.201597
 H         0.229254        -1.003673         1.772487
 H        -0.622249         0.055698         0.638533
 H        -0.199078        -1.680931         0.255367
 H         2.329202        -1.542090        -1.492102
 H         1.675470        -0.004646        -2.069570
 H         5.055257        -1.140272        -1.218956
 H         5.417887         0.142906         0.050222
 H         3.007923         0.178000         1.782036
 H         2.912446         2.659481        -0.091510
 H         2.492101         2.158915        -1.593608
