19
Iteration:  3098
 C         0.108845        -0.701169         0.570002
 C         1.454282        -0.128001         0.259954
 C         1.868977         0.911097        -0.773130
 C         3.361928         0.551026        -0.298405
 C         4.349178        -0.104916        -1.248809
 O         3.489454        -1.374345        -1.327082
 C         2.813863        -0.872765        -0.123558
 C         3.266471         1.130378         1.075140
 O         1.989939         0.499772         1.452824
 H        -0.083247        -1.408119        -0.314705
 H        -0.001141        -1.117930         1.580186
 H        -0.662996         0.187371         0.650439
 H         1.691832         0.542873        -1.803683
 H         1.520366         2.038963        -0.718430
 H         4.502571         0.286862        -2.274547
 H         5.361917        -0.286320        -0.732689
 H         3.187557        -1.539049         0.717169
 H         4.104414         0.841020         1.750077
 H         3.182550         2.188841         1.153847
