19
Iteration:  1202charge 0 multiplicity 1
 C         0.268117        -0.813103         0.542725
 C         1.536377        -0.168025         0.244603
 C         1.981207         0.031424        -1.203037
 C         3.343880         0.492076        -0.522606
 C         4.469359        -0.430109        -0.803882
 O         3.740559        -1.588239        -0.182428
 C         2.923443        -0.588765         0.563785
 C         2.856455         1.742127         0.259383
 O         1.575542         1.195719         0.693112
 H         0.038741        -1.257413        -0.427366
 H         0.427379        -1.527874         1.357276
 H        -0.439055        -0.037583         0.749677
 H         2.148983        -0.922440        -1.798508
 H         1.409705         0.817706        -1.706988
 H         4.855145        -0.601204        -1.861384
 H         5.406343        -0.268516        -0.276037
 H         3.565728        -0.388495         1.438961
 H         3.419554         1.740407         1.230979
 H         2.712800         2.724780        -0.278494
