19
Iteration:  4887charge 0 multiplicity 1
 C         0.045596        -0.648030         0.400332
 C         1.515592        -0.177532         0.303449
 C         1.977330         0.964369        -0.642085
 C         3.399132         0.508771        -0.155258
 C         4.212298         0.055025        -1.341634
 O         3.210269        -1.057692        -1.601430
 C         2.815446        -0.950348        -0.190137
 C         3.481450         0.943270         1.333323
 O         2.091273         0.268685         1.584753
 H         0.004205        -1.224975        -0.524810
 H        -0.134418        -1.347032         1.280341
 H        -0.573924         0.242403         0.613905
 H         1.904829         0.786289        -1.804838
 H         1.584017         1.996614        -0.600627
 H         4.090820         0.683749        -2.273282
 H         5.278342        -0.454143        -1.250268
 H         3.236282        -1.688008         0.380021
 H         4.179103         0.451695         1.940146
 H         3.396789         2.003637         1.566923
