19
Iteration:   558charge 0 multiplicity 1
 C         0.326776        -0.876306         0.666025
 C         1.497763        -0.159045         0.183587
 C         2.028275        -0.336825        -1.243309
 C         3.299538         0.366377        -0.562187
 C         4.551640        -0.434570        -0.503845
 O         3.954370        -1.418366         0.415075
 C         2.921852        -0.444286         0.752002
 C         2.749386         1.736202        -0.376457
 O         1.377422         1.398364         0.201632
 H         0.276393        -0.937163         1.773804
 H        -0.621191        -0.553676         0.336404
 H         0.482889        -1.906478         0.322074
 H         2.285226        -1.409105        -1.312920
 H         1.500343         0.160027        -2.070048
 H         5.094520        -0.890289        -1.368399
 H         5.300250         0.063106         0.154435
 H         3.090347         0.115607         1.644564
 H         3.255549         2.307250         0.515419
 H         2.674919         2.351192        -1.282142
