19
Iteration:   133
 C         0.239934        -0.827682         0.750244
 C         1.516245        -0.264180         0.142968
 C         2.115318        -0.662714        -1.145726
 C         3.339380         0.329227        -0.723962
 C         4.697632        -0.328001        -0.327162
 O         3.911313        -1.174797         0.767935
 C         2.845815        -0.187284         0.721265
 C         2.696096         1.663473        -0.721025
 O         1.386049         1.262998        -0.000267
 H         0.511782        -1.733836         1.248355
 H        -0.209049        -0.092819         1.472296
 H        -0.473513        -1.159001        -0.034819
 H         2.475418        -1.695611        -0.995381
 H         1.543350        -0.556612        -2.037122
 H         5.310214        -0.927653        -0.961875
 H         5.365829         0.422909         0.189801
 H         2.933564         0.425792         1.610911
 H         3.114786         2.268256        -0.036137
 H         2.417412         2.165187        -1.526933
