19
Iteration:  4380charge 0 multiplicity 1
 C         0.189488        -0.691469         0.374124
 C         1.547755        -0.065361         0.256093
 C         1.914351         1.008581        -0.664198
 C         3.439008         0.514403        -0.196137
 C         4.192052         0.018505        -1.424703
 O         3.183850        -1.068627        -1.512076
 C         2.797449        -0.882909        -0.115541
 C         3.425142         0.817820         1.334110
 O         2.053817         0.286373         1.580457
 H        -0.521906        -0.504474        -0.490456
 H         0.231352        -1.748414         0.521247
 H        -0.287964        -0.321915         1.282329
 H         1.771294         0.586064        -1.770731
 H         1.572947         2.054667        -0.402032
 H         4.333674         0.702024        -2.268183
 H         5.200917        -0.338532        -1.026253
 H         3.267738        -1.572177         0.416853
 H         4.218965         0.305906         1.854812
 H         3.497033         1.893376         1.578567
