19
Iteration:  4881
 C         0.042493        -0.683655         0.396679
 C         1.518134        -0.132470         0.324320
 C         1.991606         0.974429        -0.648760
 C         3.396825         0.515515        -0.187244
 C         4.238189         0.032258        -1.371778
 O         3.188491        -1.036087        -1.557483
 C         2.821479        -0.941063        -0.178101
 C         3.439249         0.877557         1.287303
 O         2.106615         0.293795         1.582231
 H         0.079348        -1.332662        -0.518065
 H        -0.064427        -1.328959         1.244671
 H        -0.765071         0.138856         0.425758
 H         1.827295         0.814277        -1.686135
 H         1.757338         2.027462        -0.424269
 H         4.108462         0.768211        -2.138685
 H         5.219192        -0.218932        -1.148262
 H         3.228376        -1.834536         0.515558
 H         4.211869         0.330964         1.943651
 H         3.452368         1.975030         1.475392
