19
Iteration:  2445
 C         0.186877        -0.802970         0.522033
 C         1.520003        -0.138133         0.190508
 C         1.952339         0.600733        -1.061606
 C         3.335371         0.586860        -0.347480
 C         4.288159        -0.155487        -1.170952
 O         3.404721        -1.422673        -1.016906
 C         2.890655        -0.824547         0.205459
 C         3.276736         1.227292         0.980435
 O         1.872180         0.841662         1.277237
 H        -0.189962        -1.332182        -0.375250
 H         0.230188        -1.401706         1.378872
 H        -0.534831        -0.025171         0.644776
 H         2.005536        -0.107299        -1.876678
 H         1.291130         1.531680        -1.338770
 H         4.564912         0.040085        -2.178781
 H         5.173387        -0.256443        -0.561714
 H         3.432498        -1.165931         1.186421
 H         4.103186         0.899116         1.554259
 H         3.241873         2.370893         1.139757
