19
Iteration:  1297
 C         0.143401        -0.796027         0.574228
 C         1.485013        -0.146052         0.170136
 C         1.980777         0.074796        -1.255080
 C         3.276827         0.459676        -0.446693
 C         4.502476        -0.377816        -0.829195
 O         3.781012        -1.526674        -0.301140
 C         2.963394        -0.729048         0.550159
 C         2.984870         1.733851         0.279248
 O         1.603801         1.151305         0.803874
 H        -0.076472        -0.464629         1.655600
 H        -0.762975        -0.533069        -0.045829
 H         0.298088        -1.902300         0.541365
 H         2.213497        -0.700441        -1.928339
 H         1.429034         0.916092        -1.745298
 H         4.867543        -0.558754        -1.886234
 H         5.451141        -0.182215        -0.184618
 H         3.187919        -0.699835         1.620139
 H         3.527194         2.028767         1.267014
 H         2.821103         2.654586        -0.284661
