19
Iteration:  2432
 C         0.139435        -0.809217         0.547113
 C         1.476506        -0.162969         0.206426
 C         1.923839         0.643676        -1.027366
 C         3.344364         0.536034        -0.310857
 C         4.378808        -0.241602        -1.213495
 O         3.505183        -1.426009        -1.012372
 C         2.851469        -0.827824         0.164209
 C         3.263168         1.323298         0.971850
 O         1.846226         0.868555         1.266990
 H        -0.269021        -1.250978        -0.331461
 H         0.362960        -1.617035         1.127610
 H        -0.567225        -0.242788         1.083914
 H         1.930174         0.202134        -2.038884
 H         1.579092         1.770766        -1.086836
 H         4.246937         0.116723        -2.231855
 H         5.414097        -0.441774        -0.962840
 H         3.127199        -1.360684         1.131074
 H         3.807952         0.946265         1.836100
 H         3.367582         2.441982         0.904587
