19
Iteration:  3108
 C         0.041230        -0.686346         0.578088
 C         1.448354        -0.117600         0.249775
 C         1.887140         0.909457        -0.779340
 C         3.345389         0.503475        -0.316124
 C         4.374907        -0.087774        -1.318311
 O         3.525796        -1.374745        -1.395795
 C         2.835202        -0.898919        -0.061974
 C         3.265413         1.145961         1.098338
 O         2.002107         0.538552         1.508393
 H        -0.262719        -1.689035        -0.002821
 H         0.149120        -1.074940         1.607995
 H        -0.878803         0.036540         0.289971
 H         1.760794         0.632356        -1.766034
 H         1.550400         1.972388        -0.557881
 H         4.700598         0.412217        -2.235675
 H         5.274130        -0.448337        -0.730367
 H         3.008622        -1.593843         0.800632
 H         3.883712         0.844268         1.982602
 H         3.156686         2.240962         0.955910
