19
Iteration:  4658
 C         0.138780        -0.669051         0.447512
 C         1.515206        -0.094603         0.267278
 C         1.993290         1.098979        -0.542124
 C         3.366936         0.507090        -0.270328
 C         4.224399         0.037204        -1.357350
 O         3.248868        -1.078255        -1.552185
 C         2.799271        -0.949923        -0.221545
 C         3.441614         0.886109         1.210491
 O         2.033299         0.206369         1.630488
 H        -0.029223        -1.455433        -0.303739
 H        -0.083024        -1.087276         1.494740
 H        -0.647072         0.205548         0.391047
 H         1.862555         0.918512        -1.710985
 H         1.679968         2.072000        -0.340402
 H         4.345181         0.657864        -2.292946
 H         5.226509        -0.388141        -1.108199
 H         3.166111        -1.955449         0.424346
 H         4.176610         0.381638         1.875343
 H         3.186888         1.983296         1.464719
