19
Iteration:  3555charge 0 multiplicity 1
 C         0.032242        -0.611435         0.516113
 C         1.495260        -0.162903         0.272118
 C         1.929640         0.923927        -0.721229
 C         3.405168         0.528385        -0.199725
 C         4.267015         0.061315        -1.421306
 O         3.391359        -1.152026        -1.569837
 C         2.826677        -0.954680        -0.124847
 C         3.371702         0.930962         1.325402
 O         2.035707         0.332316         1.561445
 H        -0.054828        -1.018025         1.525681
 H        -0.691258         0.261226         0.539403
 H        -0.194845        -1.295361        -0.362304
 H         1.688029         0.640254        -1.706385
 H         1.593936         2.025252        -0.502898
 H         4.106624         0.614540        -2.312716
 H         5.293843        -0.279913        -1.260150
 H         3.303620        -1.732156         0.475536
 H         4.103768         0.425719         1.945182
 H         3.244366         2.057176         1.587050
