19
Iteration:   606
 C         0.261315        -0.767980         0.656939
 C         1.508921        -0.217187         0.135450
 C         2.193464        -0.381914        -1.272016
 C         3.293880         0.420096        -0.558353
 C         4.532859        -0.475649        -0.539486
 O         3.948844        -1.426930         0.354775
 C         2.921702        -0.375016         0.748111
 C         2.640606         1.829083        -0.303094
 O         1.449581         1.252658         0.328942
 H        -0.501346         0.029155         0.670126
 H        -0.186252        -1.620928         0.053245
 H         0.379706        -1.117271         1.700918
 H         2.611410        -1.409218        -1.320107
 H         1.685363         0.154671        -2.141877
 H         4.748896        -0.948857        -1.495281
 H         5.466377        -0.021943        -0.198344
 H         2.942305        -0.201467         1.858841
 H         3.175659         2.488370         0.376612
 H         2.227353         2.253187        -1.279494
