19
Iteration:  1095
 C         0.206808        -0.782884         0.531425
 C         1.462360        -0.139346         0.207019
 C         1.984094        -0.088165        -1.206872
 C         3.263448         0.372769        -0.478539
 C         4.480590        -0.395410        -0.789681
 O         3.918093        -1.484477        -0.128344
 C         2.881691        -0.589127         0.644906
 C         2.875630         1.710350         0.155610
 O         1.629331         1.245509         0.653809
 H        -0.145807        -0.705104         1.585342
 H        -0.651741        -0.355762        -0.050948
 H         0.299252        -1.871461         0.325325
 H         2.019067        -1.090235        -1.704735
 H         1.648747         0.705686        -1.885832
 H         4.660116        -0.582706        -1.862189
 H         5.324000         0.041215        -0.182608
 H         3.159083        -0.863804         1.688964
 H         3.525001         2.007860         0.900420
 H         2.707506         2.670666        -0.416429
