19
Iteration:  3935
 C         0.185388        -0.710552         0.357958
 C         1.547212        -0.133930         0.313788
 C         1.898924         1.054032        -0.588239
 C         3.377295         0.564114        -0.197657
 C         4.239285        -0.029762        -1.390141
 O         3.212712        -1.093830        -1.521700
 C         2.787513        -0.976216        -0.190686
 C         3.479545         0.915994         1.283724
 O         2.046177         0.322412         1.586002
 H        -0.245059        -0.616105        -0.616403
 H         0.115558        -1.749734         0.652443
 H        -0.486776        -0.108669         0.923292
 H         1.509771         0.945045        -1.744936
 H         1.542093         2.053321        -0.161410
 H         4.306099         0.692650        -2.241169
 H         5.193493        -0.348731        -1.093540
 H         3.115255        -1.859972         0.488592
 H         4.301912         0.346996         1.683892
 H         3.476676         1.957404         1.572241
