19
Iteration:   967
 C         0.243347        -0.734135         0.619250
 C         1.534372        -0.218029         0.107794
 C         2.050958        -0.085274        -1.298937
 C         3.308708         0.466018        -0.598134
 C         4.512218        -0.436560        -0.696046
 O         3.843153        -1.516717         0.051370
 C         2.944680        -0.562369         0.579003
 C         2.729897         1.735746         0.025844
 O         1.559533         1.184097         0.725028
 H        -0.499043        -0.433344        -0.136561
 H         0.209737        -1.803562         0.844609
 H        -0.025188        -0.263757         1.589573
 H         2.298218        -1.121210        -1.749556
 H         1.715980         0.570505        -2.098787
 H         4.766781        -0.781509        -1.722068
 H         5.439328        -0.001315        -0.265672
 H         2.980771        -0.333364         1.618683
 H         3.499204         2.128404         0.866928
 H         2.436441         2.562050        -0.659145
