19
Iteration:  4421charge 0 multiplicity 1
 C         0.145349        -0.712105         0.478741
 C         1.485723        -0.096891         0.273463
 C         1.931706         1.125870        -0.557317
 C         3.377956         0.487490        -0.227609
 C         4.254054         0.036701        -1.362459
 O         3.313224        -1.163730        -1.647765
 C         2.806892        -0.889745        -0.216724
 C         3.424513         0.801600         1.244597
 O         2.012134         0.353074         1.582068
 H        -0.266640        -1.243286        -0.430091
 H         0.355947        -1.487988         1.251870
 H        -0.560768         0.049111         1.032522
 H         1.662600         1.137805        -1.455317
 H         1.766426         2.140665        -0.183314
 H         4.369029         0.669347        -2.224007
 H         5.181887        -0.433930        -1.068253
 H         2.901254        -1.751479         0.620382
 H         3.961403         0.164140         2.014484
 H         3.462935         1.865582         1.444611
