19
Iteration:  3710charge 0 multiplicity 1
 C         0.127400        -0.532545         0.478171
 C         1.526534        -0.135135         0.235063
 C         1.911338         1.021056        -0.606729
 C         3.364540         0.541316        -0.213138
 C         4.220545         0.051153        -1.366915
 O         3.347422        -1.155282        -1.601416
 C         2.799274        -0.978771        -0.192531
 C         3.377006         0.960144         1.295318
 O         2.097494         0.170502         1.584657
 H        -0.581657        -0.262536        -0.411154
 H         0.099354        -1.713646         0.477305
 H        -0.244345        -0.178642         1.536103
 H         1.692839         0.881820        -1.655920
 H         1.407906         1.931358        -0.185165
 H         4.308431         0.578637        -2.285698
 H         5.225996        -0.252218        -1.033722
 H         3.045085        -1.855865         0.428374
 H         4.118451         0.695641         1.939491
 H         3.050560         1.972381         1.457601
