19
Iteration:  4797charge 0 multiplicity 1
 C         0.106530        -0.594809         0.479776
 C         1.532436        -0.171427         0.321546
 C         1.945836         0.919163        -0.596315
 C         3.363672         0.487757        -0.172869
 C         4.247349         0.040545        -1.362658
 O         3.276387        -1.048991        -1.691270
 C         2.775733        -0.977408        -0.195114
 C         3.349411         0.892852         1.333638
 O         2.135520         0.316968         1.553142
 H        -0.410289        -0.729545        -0.490388
 H        -0.053295        -1.591005         1.005718
 H        -0.547432         0.102879         1.034995
 H         1.859688         0.711089        -1.774034
 H         1.599718         2.008441        -0.549380
 H         4.453276         0.906331        -2.097067
 H         5.305382        -0.348365        -0.933024
 H         3.147752        -1.756643         0.361787
 H         4.030411         0.445299         2.048956
 H         3.328936         1.975164         1.456015
