19
Iteration:  4868
 C         0.179680        -0.739430         0.363373
 C         1.509447        -0.101088         0.286717
 C         1.988035         1.047729        -0.587783
 C         3.409211         0.464131        -0.221769
 C         4.205038         0.064773        -1.402112
 O         3.242848        -1.049583        -1.542595
 C         2.748465        -0.877434        -0.114020
 C         3.399226         0.789902         1.210042
 O         2.070847         0.349494         1.637955
 H        -0.028976        -1.503732        -0.455247
 H        -0.014928        -1.258140         1.345945
 H        -0.733085         0.051540         0.264783
 H         1.696815         0.952132        -1.509315
 H         1.726135         2.020042        -0.235095
 H         4.371944         0.569826        -2.329849
 H         5.086822        -0.540190        -1.198915
 H         3.092721        -1.736548         0.509863
 H         4.198546         0.200515         1.716234
 H         3.469397         1.842713         1.508652
