19
Iteration:  2398
 C         0.147232        -0.699262         0.520967
 C         1.553483        -0.121599         0.231283
 C         1.944221         0.729406        -0.993409
 C         3.327715         0.501010        -0.334117
 C         4.338926        -0.271419        -1.185391
 O         3.558905        -1.567428        -1.032005
 C         2.890931        -0.880489         0.129954
 C         3.081140         1.486051         0.883522
 O         1.863168         0.709802         1.364964
 H        -0.509900        -0.620786        -0.275433
 H         0.384169        -1.723384         0.678073
 H        -0.314835        -0.303414         1.419372
 H         1.914111         0.299052        -2.056564
 H         1.711692         1.861638        -0.912964
 H         4.410518         0.176702        -2.197428
 H         5.355706        -0.306014        -0.784975
 H         3.297171        -1.331557         1.064457
 H         3.825103         1.415552         1.782548
 H         2.923742         2.497635         0.484528
