19
Iteration:   230
 C         0.234942        -0.825740         0.781809
 C         1.523621        -0.268064         0.140445
 C         2.098857        -0.601780        -1.264473
 C         3.305550         0.324947        -0.717937
 C         4.722090        -0.420613        -0.235488
 O         3.974728        -1.219827         0.616276
 C         2.900713        -0.141068         0.765252
 C         2.591150         1.679077        -0.633694
 O         1.393729         1.273691         0.066633
 H        -0.545447        -0.280709         0.303089
 H         0.109344        -1.905019         0.458276
 H         0.155040        -0.738240         1.873413
 H         2.390894        -1.649441        -1.357936
 H         1.506980        -0.232092        -2.066583
 H         5.247090        -1.054262        -0.951903
 H         5.442166         0.256247         0.278324
 H         2.985122         0.447918         1.623422
 H         3.083873         2.328979         0.080466
 H         2.362004         2.203229        -1.626113
