19
Iteration:  3869charge 0 multiplicity 1
 C         0.092217        -0.616758         0.560399
 C         1.457803        -0.090193         0.222100
 C         1.954875         1.054964        -0.558294
 C         3.319410         0.453630        -0.226938
 C         4.220887         0.109456        -1.346990
 O         3.425529        -1.107300        -1.611051
 C         2.791522        -0.981507        -0.278875
 C         3.403391         0.763985         1.228470
 O         2.039368         0.315463         1.607186
 H        -0.031870        -1.566635         0.151930
 H         0.135126        -0.744142         1.608704
 H        -0.731274        -0.023299         0.286802
 H         1.681100         0.998340        -1.748693
 H         1.660875         2.118283        -0.222038
 H         4.210846         0.709363        -2.283216
 H         5.206890        -0.217244        -1.129447
 H         3.173760        -1.733359         0.477459
 H         4.067119         0.144368         1.823737
 H         3.463994         1.832694         1.447232
