19
Iteration:  1322charge 0 multiplicity 1
 C         0.214994        -0.862385         0.602574
 C         1.497879        -0.112222         0.121222
 C         2.046032         0.216262        -1.217755
 C         3.374992         0.472985        -0.388905
 C         4.476246        -0.470745        -0.908211
 O         3.786270        -1.622495        -0.289628
 C         2.933781        -0.680609         0.518470
 C         2.785548         1.695726         0.314536
 O         1.627478         1.216660         0.827739
 H        -0.394887        -0.056494         1.049731
 H        -0.432733        -1.274301        -0.191428
 H         0.437860        -1.685332         1.279029
 H         2.206747        -0.679247        -1.940660
 H         1.721779         1.039288        -1.778055
 H         4.633176        -0.408145        -2.044531
 H         5.481372        -0.398000        -0.437377
 H         3.004181        -0.762132         1.591318
 H         3.270082         2.238584         1.252195
 H         2.655981         2.555325        -0.322245
