19
Iteration:  1621
 C         0.127334        -0.878446         0.539951
 C         1.489699        -0.193285         0.195045
 C         1.917903         0.320005        -1.127859
 C         3.349537         0.440761        -0.362205
 C         4.432530        -0.343596        -0.968604
 O         3.744624        -1.532124        -0.546001
 C         2.947277        -0.827142         0.416000
 C         3.080744         1.647735         0.467491
 O         1.670359         1.195953         1.003809
 H        -0.233912        -1.342615        -0.413509
 H         0.171606        -1.703402         1.268476
 H        -0.579288        -0.113893         0.812423
 H         1.985810        -0.449010        -1.974266
 H         1.375377         1.187068        -1.412541
 H         4.383387        -0.160106        -2.080563
 H         5.536197        -0.412085        -0.685189
 H         3.247374        -1.065865         1.468310
 H         3.736940         2.049260         1.304922
 H         2.755158         2.582348         0.039838
