19
Iteration:  4316charge 0 multiplicity 1
 C         0.115992        -0.656269         0.575690
 C         1.476817        -0.123284         0.250985
 C         2.035221         1.061890        -0.711418
 C         3.359185         0.562894        -0.201302
 C         4.244663         0.126141        -1.347345
 O         3.332236        -1.133800        -1.579691
 C         2.758176        -0.914046        -0.254656
 C         3.369203         0.807313         1.290416
 O         2.056463         0.226160         1.567545
 H        -0.487903        -0.789967        -0.324811
 H         0.170496        -1.487008         1.216689
 H        -0.277499         0.154512         1.034007
 H         1.652993         0.735641        -1.823538
 H         1.666137         2.043815        -0.367795
 H         4.367768         0.582629        -2.324478
 H         5.171885        -0.295991        -1.021144
 H         2.976274        -1.774199         0.533724
 H         4.127732         0.335602         1.833629
 H         3.258376         1.813121         1.757897
