19
Iteration:   427charge 0 multiplicity 1
 C         0.341627        -0.822940         0.710182
 C         1.493194        -0.188200         0.115508
 C         2.126955        -0.382043        -1.285035
 C         3.326576         0.386177        -0.615096
 C         4.589873        -0.478338        -0.498698
 O         3.939452        -1.360243         0.606385
 C         2.898011        -0.271340         0.811825
 C         2.620269         1.743568        -0.492146
 O         1.390028         1.220374         0.181730
 H        -0.545826        -0.317026         0.345419
 H         0.363949        -1.831247         0.410556
 H         0.385436        -0.743197         1.782015
 H         2.345677        -1.398357        -1.559927
 H         1.715606         0.178984        -2.120922
 H         4.960198        -1.069624        -1.292615
 H         5.423907        -0.010075        -0.013658
 H         3.037477         0.283406         1.712166
 H         3.187729         2.310001         0.116589
 H         2.248295         2.187602        -1.370158
