19
Iteration:  1569charge 0 multiplicity 1
 C         0.131800        -0.781520         0.580814
 C         1.465222        -0.183942         0.162197
 C         1.869580         0.251074        -1.217875
 C         3.318650         0.466563        -0.445523
 C         4.515923        -0.382634        -0.965135
 O         3.773853        -1.551738        -0.524603
 C         2.917699        -0.654069         0.429942
 C         3.016288         1.661622         0.464848
 O         1.715920         1.050010         1.033482
 H        -0.689866        -0.163504         0.149123
 H         0.006691        -1.793884         0.232539
 H         0.056760        -0.685140         1.629419
 H         2.131724        -0.563289        -2.002480
 H         1.288452         1.106039        -1.548347
 H         4.950402        -0.419381        -1.946819
 H         5.353481        -0.290746        -0.238747
 H         3.186696        -0.790703         1.530472
 H         3.647888         1.608991         1.269468
 H         2.568379         2.676223         0.236586
