19
Iteration:   608charge 0 multiplicity 1
 C         0.253476        -0.760712         0.645037
 C         1.511935        -0.209815         0.139859
 C         2.182669        -0.380729        -1.282577
 C         3.293511         0.410767        -0.555634
 C         4.548360        -0.459302        -0.548617
 O         3.959778        -1.435813         0.359834
 C         2.909073        -0.386323         0.760089
 C         2.634871         1.827777        -0.307619
 O         1.453676         1.248942         0.330403
 H        -0.522772         0.003901         0.672707
 H        -0.175733        -1.679039         0.096188
 H         0.403671        -1.015186         1.704862
 H         2.549286        -1.358012        -1.318253
 H         1.744908         0.162979        -2.116313
 H         4.754688        -0.935244        -1.519227
 H         5.496052        -0.070678        -0.203490
 H         2.930888        -0.136756         1.870793
 H         3.164958         2.453209         0.339595
 H         2.189586         2.258596        -1.202969
