19
Iteration:  1005charge 0 multiplicity 1
 C         0.132009        -0.887601         0.654427
 C         1.466434        -0.222837         0.247553
 C         1.989156        -0.042521        -1.175005
 C         3.343817         0.469735        -0.439350
 C         4.614330        -0.412589        -0.735979
 O         3.888313        -1.562909        -0.098927
 C         2.906951        -0.585208         0.573605
 C         2.873836         1.745817         0.044179
 O         1.500489         1.363691         0.531290
 H         0.010780        -1.695326        -0.097227
 H         0.210116        -1.254040         1.714149
 H        -0.639162        -0.138057         0.520142
 H         2.179421        -0.990927        -1.594880
 H         1.529801         0.649035        -1.970135
 H         4.812692        -0.643731        -1.807871
 H         5.468612        -0.282102        -0.049161
 H         3.163570        -0.763516         1.677308
 H         3.467654         2.088833         0.807766
 H         2.811099         2.633940        -0.582836
