19
Iteration:  2518charge 0 multiplicity 1
 C         0.195364        -0.650977         0.508830
 C         1.512459        -0.162895         0.189486
 C         1.884903         0.621974        -1.022292
 C         3.344600         0.503790        -0.301619
 C         4.306164        -0.150604        -1.275652
 O         3.548711        -1.431802        -1.041910
 C         2.913969        -0.861486         0.176050
 C         3.163377         1.290525         1.003762
 O         1.859260         0.745260         1.344078
 H         0.154736        -1.734544         0.687272
 H         0.038646        -0.114583         1.461924
 H        -0.553974        -0.394972        -0.253726
 H         1.866791        -0.052789        -1.839023
 H         1.483510         1.602316        -1.302025
 H         4.383900         0.229542        -2.333965
 H         5.311023        -0.461195        -0.883446
 H         3.095519        -1.409260         1.042142
 H         3.794529         1.081907         1.875830
 H         3.203495         2.330893         0.928423
