19
Iteration:   715
 C         0.300033        -0.831167         0.716215
 C         1.547091        -0.262792         0.139538
 C         2.094804        -0.152113        -1.291119
 C         3.324789         0.425487        -0.451855
 C         4.574661        -0.523746        -0.547014
 O         3.871930        -1.447419         0.224103
 C         2.915597        -0.443524         0.717180
 C         2.742943         1.771606        -0.246664
 O         1.431774         1.290960         0.340643
 H         0.447907        -1.454216         1.606350
 H        -0.510878        -0.012320         0.811716
 H        -0.019008        -1.530033        -0.053530
 H         2.185561        -1.120490        -1.821355
 H         1.323220         0.435875        -1.992574
 H         4.663073        -0.923332        -1.572463
 H         5.564956        -0.269353        -0.061409
 H         3.049378        -0.120486         1.781082
 H         3.037508         2.483082         0.630349
 H         2.557584         2.402401        -1.225651
