19
Iteration:  3783
 C         0.129754        -0.750157         0.410111
 C         1.516465        -0.128178         0.312203
 C         2.023511         1.043536        -0.605398
 C         3.446358         0.493648        -0.183532
 C         4.239489        -0.004828        -1.397661
 O         3.137634        -0.985066        -1.628964
 C         2.829617        -0.935542        -0.167735
 C         3.449681         0.919926         1.274093
 O         2.004217         0.272322         1.597575
 H         0.134774        -1.691803        -0.030691
 H        -0.131516        -0.898203         1.486131
 H        -0.688424        -0.086131         0.205778
 H         1.774402         0.945986        -1.679022
 H         1.830186         2.076162        -0.189986
 H         4.404599         0.673320        -2.277216
 H         5.133770        -0.639754        -1.134730
 H         3.191983        -1.740217         0.494324
 H         4.215686         0.300517         1.940490
 H         3.394831         1.980451         1.531339
