19
Iteration:  4673
 C         0.134546        -0.697129         0.429926
 C         1.517351        -0.151435         0.318393
 C         2.003595         0.987585        -0.660849
 C         3.462491         0.505272        -0.122460
 C         4.249207        -0.032915        -1.399883
 O         3.170057        -0.995054        -1.618864
 C         2.745985        -0.847332        -0.166624
 C         3.365102         0.896302         1.292438
 O         2.105007         0.240178         1.587480
 H        -0.005014        -1.471386        -0.278887
 H        -0.005842        -1.134333         1.341339
 H        -0.589259         0.018360         0.296934
 H         1.681222         0.838171        -1.689137
 H         1.751047         2.107319        -0.355850
 H         4.311277         0.668865        -2.235073
 H         5.265675        -0.551931        -1.132024
 H         3.061729        -1.611237         0.473124
 H         4.193056         0.497828         1.935022
 H         3.347885         1.965967         1.408671
