19
Iteration:   585
 C         0.223120        -0.892567         0.676825
 C         1.543879        -0.270514         0.232118
 C         2.096135        -0.389625        -1.236966
 C         3.363292         0.419438        -0.546331
 C         4.631154        -0.432107        -0.544474
 O         3.789421        -1.392381         0.328641
 C         2.961478        -0.289257         0.749405
 C         2.743481         1.786026        -0.322619
 O         1.422337         1.297089         0.226071
 H        -0.336664        -0.210379         1.325280
 H        -0.444501        -1.219155        -0.198796
 H         0.415551        -1.767303         1.321967
 H         2.443696        -1.400801        -1.401092
 H         1.510005         0.240131        -1.947659
 H         4.991543        -0.879447        -1.471166
 H         5.513723        -0.186374         0.032849
 H         3.194668         0.313783         1.679724
 H         3.244779         2.261558         0.478083
 H         2.479801         2.392092        -1.219901
