19
Iteration:  4077charge 0 multiplicity 1
 C         0.132760        -0.741348         0.414397
 C         1.508577        -0.124434         0.234768
 C         1.900872         1.092802        -0.635211
 C         3.460252         0.529523        -0.204286
 C         4.257355         0.071672        -1.408694
 O         3.184604        -1.094719        -1.479167
 C         2.851450        -0.828313        -0.163424
 C         3.411753         0.720081         1.311165
 O         2.083029         0.327787         1.548905
 H        -0.209394        -1.528978        -0.381830
 H         0.038909        -1.162199         1.501704
 H        -0.655149         0.065997         0.261838
 H         1.690790         1.001898        -1.778620
 H         1.534348         1.918699        -0.210994
 H         4.062998         0.815801        -2.294928
 H         5.269438        -0.401747        -1.386215
 H         3.283963        -1.645821         0.556970
 H         4.023250        -0.001514         1.899509
 H         3.557434         1.746240         1.686324
