19
Iteration:  2569
 C         0.248955        -0.777447         0.494799
 C         1.503115        -0.133501         0.216594
 C         1.909404         0.783839        -0.968827
 C         3.307908         0.455201        -0.296654
 C         4.376315        -0.245991        -1.121423
 O         3.488895        -1.426825        -1.076954
 C         2.777394        -0.917636         0.081798
 C         3.184432         1.382432         0.892866
 O         1.943411         0.762957         1.367659
 H         0.543476        -1.614474         1.158718
 H        -0.609697        -0.148273         1.040594
 H        -0.208751        -1.120087        -0.498034
 H         1.751584         0.408062        -2.030216
 H         1.425964         1.742092        -0.798084
 H         4.399484         0.339098        -2.083400
 H         5.333478        -0.572991        -0.756585
 H         3.048914        -1.547222         1.061674
 H         3.972725         1.312612         1.735211
 H         2.893378         2.436100         0.490184
