19
Iteration:  3483charge 0 multiplicity 1
 C         0.164524        -0.756341         0.373964
 C         1.578262        -0.090475         0.353256
 C         1.912782         0.913734        -0.674124
 C         3.389799         0.489036        -0.246780
 C         4.328413        -0.056687        -1.291473
 O         3.187854        -1.146257        -1.571407
 C         2.808118        -0.906439        -0.143016
 C         3.320638         1.035137         1.226655
 O         2.056957         0.449281         1.599325
 H         0.261962        -1.877338         0.150947
 H        -0.257862        -0.789228         1.484917
 H        -0.453890        -0.184905        -0.287296
 H         1.736958         0.738264        -1.715567
 H         1.700001         1.952621        -0.422576
 H         4.533713         0.618944        -2.157678
 H         5.165251        -0.622164        -0.821544
 H         3.126876        -1.737110         0.530483
 H         4.146102         0.669111         1.883523
 H         3.243808         2.026260         1.279327
