19
Iteration:  3002charge 0 multiplicity 1
 C         0.128428        -0.755764         0.520613
 C         1.486027        -0.096372         0.202955
 C         1.917935         0.810107        -0.918628
 C         3.374188         0.573399        -0.285199
 C         4.303637        -0.170044        -1.276504
 O         3.383980        -1.226428        -1.290621
 C         2.857153        -0.876425         0.071875
 C         3.316336         1.163420         1.115407
 O         1.989721         0.522766         1.454093
 H        -0.573095        -0.056183         0.252860
 H        -0.095992        -1.588505        -0.115804
 H         0.087570        -1.095332         1.476597
 H         1.856543         0.344899        -1.999062
 H         1.368677         1.824202        -0.891632
 H         4.462673         0.064004        -2.337397
 H         5.214328        -0.421863        -0.740488
 H         3.037537        -1.456458         0.996649
 H         4.115391         0.794377         1.779818
 H         3.099404         2.248880         1.352765
