19
Iteration:  1590
 C         0.176436        -0.739707         0.610342
 C         1.512076        -0.167526         0.137087
 C         1.995658         0.312096        -1.243796
 C         3.327716         0.566067        -0.548129
 C         4.446409        -0.403230        -0.973650
 O         3.701304        -1.570600        -0.428447
 C         2.987077        -0.728008         0.339900
 C         2.898841         1.652938         0.574177
 O         1.728644         0.975067         1.057435
 H        -0.550500        -0.537837        -0.213204
 H         0.144955        -1.795227         0.825445
 H        -0.218141        -0.190227         1.416059
 H         2.086394        -0.658592        -1.912984
 H         1.506259         1.124576        -1.762910
 H         4.543000        -0.343991        -2.072360
 H         5.441846        -0.292165        -0.432981
 H         3.285410        -0.737463         1.462410
 H         3.583887         1.730236         1.336859
 H         2.327670         2.497546         0.108863
