19
Iteration:  4440
 C         0.093692        -0.623721         0.502443
 C         1.535365        -0.180475         0.292316
 C         1.924211         0.989061        -0.636252
 C         3.354766         0.541662        -0.219630
 C         4.264535        -0.034764        -1.365104
 O         3.277849        -0.990608        -1.573236
 C         2.762189        -0.915634        -0.253043
 C         3.413980         0.847525         1.275552
 O         2.108543         0.265332         1.595414
 H        -0.124117        -1.229413        -0.326163
 H         0.039807        -1.198206         1.433672
 H        -0.561503         0.286270         0.480147
 H         1.688531         0.823642        -1.927497
 H         1.517173         2.013023        -0.357804
 H         4.447554         0.600647        -2.253420
 H         5.213467        -0.386998        -0.969279
 H         3.141029        -1.664184         0.449742
 H         4.115034         0.184867         1.854653
 H         3.311275         1.865383         1.657817
