19
Iteration:  2699
 C         0.205664        -0.754146         0.453890
 C         1.559094        -0.188359         0.240787
 C         1.885911         0.684076        -0.965683
 C         3.345680         0.529787        -0.311944
 C         4.323089        -0.206575        -1.184956
 O         3.446438        -1.363469        -1.158426
 C         2.845314        -0.917750         0.114592
 C         3.198474         1.379154         0.959717
 O         1.919455         0.713240         1.433849
 H        -0.333195         0.029526         0.876534
 H        -0.348488        -0.991425        -0.471416
 H         0.156782        -1.483414         1.238869
 H         1.987692         0.149941        -2.043640
 H         1.397216         1.744527        -1.018561
 H         4.594309         0.283746        -2.174351
 H         5.275530        -0.461670        -0.610323
 H         3.241689        -1.506590         1.001519
 H         3.967955         1.033124         1.652521
 H         3.001477         2.467434         1.025076
