19
Iteration:  2615charge 0 multiplicity 1
 C         0.153743        -0.718634         0.478056
 C         1.510596        -0.167034         0.243537
 C         1.839098         0.616140        -0.994633
 C         3.419640         0.554210        -0.300759
 C         4.368659        -0.222444        -1.267877
 O         3.434196        -1.356877        -1.102817
 C         2.977300        -0.866469         0.167335
 C         3.238759         1.275948         1.008539
 O         1.841869         0.784177         1.360815
 H        -0.188783        -0.659462         1.579270
 H        -0.559570        -0.111922        -0.218969
 H         0.132703        -1.790096         0.080604
 H         1.802886         0.130256        -1.910399
 H         1.375387         1.553774        -0.984783
 H         4.424723         0.105188        -2.307293
 H         5.311921        -0.281907        -0.755765
 H         3.246469        -1.457961         1.109205
 H         3.937182         0.811450         1.785753
 H         3.161239         2.384306         1.044005
