19
Iteration:  4777
 C         0.028691        -0.556685         0.493009
 C         1.505786        -0.229182         0.295739
 C         1.923511         0.945751        -0.623778
 C         3.412216         0.515790        -0.195509
 C         4.274813         0.033317        -1.419848
 O         3.338762        -1.050020        -1.599261
 C         2.856706        -0.964787        -0.227166
 C         3.403359         0.896096         1.214642
 O         2.012624         0.244389         1.659724
 H        -0.627911        -0.334346        -0.416171
 H        -0.119060        -1.669206         0.916439
 H        -0.381096         0.244944         1.309566
 H         1.612252         0.893422        -1.760898
 H         1.653235         1.939267        -0.252925
 H         4.445897         0.853605        -2.188666
 H         5.321818        -0.275635        -1.043969
 H         3.198825        -1.742708         0.424551
 H         4.213884         0.485455         1.759940
 H         3.354639         1.977376         1.391637
