19
Iteration:  4818
 C         0.194250        -0.701641         0.449980
 C         1.523546        -0.117366         0.224712
 C         2.001204         1.022783        -0.640808
 C         3.366160         0.484918        -0.194457
 C         4.265105         0.006908        -1.348714
 O         3.214843        -1.003517        -1.545898
 C         2.755448        -0.880273        -0.179365
 C         3.452919         0.859928         1.231094
 O         2.001260         0.259324         1.640596
 H        -0.284983        -1.234255        -0.363386
 H         0.109462        -1.423436         1.232469
 H        -0.506184        -0.021547         0.789693
 H         1.726491         0.991774        -1.824841
 H         1.671742         2.109994        -0.429485
 H         4.215124         0.560686        -2.337085
 H         5.346704        -0.453948        -1.148962
 H         3.092447        -1.745075         0.340117
 H         4.220529         0.283898         1.781435
 H         3.398844         1.912318         1.492340
