19
Iteration:  3036
 C         0.173662        -0.761107         0.439484
 C         1.504099        -0.093494         0.297507
 C         1.969430         0.854650        -0.737419
 C         3.428872         0.430163        -0.217198
 C         4.291052        -0.103158        -1.392534
 O         3.383610        -1.335006        -1.372928
 C         2.874921        -0.953858         0.077351
 C         3.247417         1.180389         1.073585
 O         1.889537         0.661453         1.507640
 H        -0.452549        -0.381797        -0.270695
 H         0.304614        -1.838927         0.264833
 H        -0.346452        -0.532848         1.265147
 H         1.714972         0.620451        -1.879330
 H         1.679442         1.902489        -0.509346
 H         4.363791         0.283369        -2.421215
 H         5.267531        -0.239490        -1.002023
 H         3.210154        -1.755787         0.735494
 H         4.046386         0.947803         1.789413
 H         3.121158         2.303691         0.944680
