19
Iteration:  3861
 C         0.065510        -0.608231         0.529358
 C         1.449869        -0.146043         0.223336
 C         1.875157         1.091394        -0.633914
 C         3.344790         0.484246        -0.228991
 C         4.249115         0.085975        -1.404037
 O         3.399027        -1.113200        -1.590946
 C         2.828308        -0.943624        -0.248687
 C         3.424464         0.761322         1.297944
 O         2.044791         0.306195         1.623873
 H        -0.221184        -1.599901         0.236086
 H         0.126698        -0.724433         1.672799
 H        -0.833230        -0.062704         0.174794
 H         1.623633         0.892734        -1.808186
 H         1.677348         2.180096        -0.186141
 H         4.229646         0.731892        -2.293542
 H         5.367424        -0.151890        -1.154380
 H         3.240685        -1.650563         0.461291
 H         4.248788         0.021414         1.830581
 H         3.745839         1.747588         1.668085
