19
Iteration:  4431
 C         0.165612        -0.668384         0.528770
 C         1.511790        -0.105645         0.279834
 C         1.900397         1.066226        -0.588878
 C         3.397929         0.526107        -0.210926
 C         4.323479        -0.000567        -1.365901
 O         3.287866        -1.103540        -1.608406
 C         2.734073        -0.917390        -0.242731
 C         3.374104         0.822210         1.271874
 O         2.025659         0.311325         1.570571
 H        -0.141355        -1.150770        -0.414109
 H         0.046839        -1.384577         1.348528
 H        -0.646085         0.164767         0.632365
 H         1.649194         0.949962        -1.581484
 H         1.596861         2.004054        -0.093064
 H         4.380776         0.635510        -2.235521
 H         5.291441        -0.383699        -1.119147
 H         3.265467        -1.782170         0.324545
 H         4.292093         0.282017         1.643172
 H         3.510829         1.843953         1.586424
