19
Iteration:  4665
 C         0.122639        -0.695620         0.458821
 C         1.566836        -0.096692         0.315243
 C         1.996965         1.061103        -0.603575
 C         3.433518         0.497195        -0.194958
 C         4.253668        -0.005211        -1.378666
 O         3.199887        -1.027017        -1.571951
 C         2.750782        -0.903241        -0.200596
 C         3.396474         0.891843         1.216328
 O         2.039972         0.201285         1.601637
 H        -0.085701        -1.451603        -0.392055
 H        -0.015297        -1.151779         1.502776
 H        -0.573655         0.115273         0.194992
 H         1.956737         0.743640        -1.578972
 H         1.683291         2.075508        -0.244818
 H         4.295933         0.625146        -2.249930
 H         5.227913        -0.333068        -1.121100
 H         3.079172        -1.689602         0.425559
 H         4.210568         0.524146         1.788361
 H         3.283955         1.933809         1.403448
