19
Iteration:  4637
 C         0.048605        -0.637012         0.476679
 C         1.536859        -0.118560         0.235434
 C         1.846405         1.060943        -0.558846
 C         3.378183         0.503367        -0.255478
 C         4.211128         0.030827        -1.368067
 O         3.397627        -1.157938        -1.586743
 C         2.746302        -0.858059        -0.212601
 C         3.401174         0.785566         1.308315
 O         2.126823         0.297717         1.571574
 H        -0.239208        -1.202936        -0.367345
 H        -0.131623        -1.196857         1.405986
 H        -0.573459         0.312563         0.566978
 H         1.746360         0.979894        -1.736253
 H         1.472662         1.938773        -0.008424
 H         4.170582         0.670818        -2.319982
 H         5.355506        -0.120030        -1.165829
 H         3.237486        -1.675218         0.528721
 H         4.230871         0.124798         1.710406
 H         3.473495         1.896256         1.673023
