19
Iteration:  2934charge 0 multiplicity 1
 C         0.085366        -0.722020         0.536586
 C         1.537759        -0.165345         0.237445
 C         1.989525         0.839699        -0.938539
 C         3.336420         0.524317        -0.246963
 C         4.278805        -0.110494        -1.312806
 O         3.435457        -1.331229        -1.264760
 C         2.876211        -0.947395         0.039112
 C         3.260310         1.222107         1.129304
 O         1.935169         0.549187         1.453947
 H        -0.257917        -0.289057         1.471678
 H        -0.558369        -0.292117        -0.135131
 H        -0.046152        -1.760879         0.395170
 H         1.954254         0.332338        -1.846222
 H         1.628898         1.913740        -1.128578
 H         4.190356         0.381071        -2.274545
 H         5.354450        -0.328169        -1.031578
 H         3.481358        -1.377515         0.905301
 H         4.038888         1.137457         1.918766
 H         3.066125         2.274100         0.928992
