19
Iteration:  4704
 C         0.200085        -0.733432         0.409595
 C         1.547961        -0.213150         0.302915
 C         2.009914         1.018439        -0.600671
 C         3.404211         0.540987        -0.132102
 C         4.212337        -0.017743        -1.358884
 O         3.172151        -1.026248        -1.637146
 C         2.765404        -0.911791        -0.222153
 C         3.428228         0.858127         1.270746
 O         2.015934         0.392181         1.617346
 H        -0.057626        -1.269347        -0.466336
 H         0.067328        -1.393954         1.213020
 H        -0.468791         0.085454         0.630842
 H         1.760278         0.986010        -1.666719
 H         1.643585         2.034948        -0.270013
 H         4.387688         0.578928        -2.274516
 H         5.207117        -0.552124        -1.103723
 H         3.125305        -1.838605         0.431999
 H         4.164381         0.226032         1.878791
 H         3.492375         1.969584         1.463039
