19
Iteration:   389
 C         0.255931        -0.889425         0.706830
 C         1.516310        -0.208896         0.200317
 C         2.124826        -0.542635        -1.107703
 C         3.254333         0.317288        -0.593361
 C         4.625241        -0.345730        -0.469211
 O         3.924113        -1.357664         0.467972
 C         2.884248        -0.269870         0.818166
 C         2.739040         1.796107        -0.472288
 O         1.423351         1.314416        -0.008949
 H        -0.317425        -0.218554         1.415199
 H        -0.493835        -1.148120        -0.101748
 H         0.447893        -1.774141         1.375781
 H         2.534075        -1.580426        -1.195183
 H         1.606089        -0.285562        -2.051111
 H         5.001704        -0.924480        -1.388471
 H         5.336554         0.417012        -0.038643
 H         2.952616         0.134679         1.894495
 H         3.258836         2.336490         0.498315
 H         2.469659         2.649478        -1.181666
