19
Iteration:  3128charge 0 multiplicity 1
 C         0.102811        -0.645314         0.583115
 C         1.474482        -0.200424         0.266270
 C         1.955298         0.827562        -0.829251
 C         3.366676         0.470834        -0.231440
 C         4.318499        -0.084695        -1.236165
 O         3.436019        -1.247458        -1.411629
 C         2.846311        -0.942553        -0.065721
 C         3.273411         1.137166         1.080475
 O         1.964836         0.563714         1.495780
 H        -0.027169        -1.744971         0.229212
 H        -0.142141        -0.543639         1.649815
 H        -0.605186        -0.143413        -0.218594
 H         1.791666         0.529158        -1.822442
 H         1.699824         1.814704        -0.794611
 H         4.336443         0.414318        -2.186412
 H         5.338960        -0.277277        -1.004037
 H         3.131622        -1.738793         0.649753
 H         4.043881         0.724096         1.827280
 H         3.124808         2.329414         1.073724
