19
Iteration:  1694charge 0 multiplicity 1
 C         0.109001        -0.840349         0.620124
 C         1.485568        -0.189976         0.131386
 C         1.944348         0.445587        -1.206912
 C         3.334691         0.488497        -0.372326
 C         4.441066        -0.391210        -0.979826
 O         3.771195        -1.584655        -0.575321
 C         2.919268        -0.776484         0.360451
 C         2.993011         1.656590         0.465308
 O         1.727715         1.032992         1.104057
 H         0.306964        -1.686562         1.284249
 H        -0.458013        -0.166567         1.327463
 H        -0.629898        -1.134350        -0.185487
 H         1.995989        -0.129086        -2.104635
 H         1.565959         1.455530        -1.409740
 H         4.603567        -0.224601        -2.055887
 H         5.378431        -0.295982        -0.488747
 H         3.131590        -1.166483         1.330345
 H         3.600526         1.994089         1.265555
 H         2.958290         2.645825        -0.073634
