19
Iteration:  4345charge 0 multiplicity 1
 C         0.056185        -0.628786         0.413918
 C         1.484827        -0.168653         0.300394
 C         1.913723         0.945273        -0.564143
 C         3.405813         0.433169        -0.192099
 C         4.313159         0.066482        -1.371411
 O         3.287996        -1.041195        -1.604770
 C         2.777868        -0.972804        -0.188190
 C         3.403661         0.947295         1.230861
 O         2.118005         0.278688         1.599564
 H        -0.495750        -0.286450        -0.508846
 H        -0.029517        -1.719590         0.601966
 H        -0.341985         0.012839         1.327237
 H         1.473636         0.910319        -1.537457
 H         1.530412         1.942842        -0.168753
 H         4.484653         0.593756        -2.301998
 H         5.292369        -0.452583        -1.057938
 H         3.078317        -1.723296         0.425773
 H         4.203292         0.627319         1.988421
 H         3.204096         2.000842         1.314344
