19
Iteration:   446charge 0 multiplicity 1
 C         0.282652        -0.808694         0.648563
 C         1.550383        -0.227010         0.137471
 C         2.101628        -0.457514        -1.274971
 C         3.321281         0.389262        -0.690273
 C         4.579530        -0.482149        -0.409382
 O         3.926720        -1.306234         0.532747
 C         2.950085        -0.313381         0.732242
 C         2.626688         1.736542        -0.445398
 O         1.424576         1.273466         0.270299
 H        -0.392556        -0.851430        -0.163535
 H         0.480186        -1.786731         1.186182
 H        -0.065822        -0.130062         1.422730
 H         2.418975        -1.474087        -1.375386
 H         1.482776        -0.034038        -2.045441
 H         4.933285        -1.165500        -1.254049
 H         5.422027         0.129179        -0.066656
 H         2.931373         0.172620         1.747357
 H         3.095988         2.568865         0.251121
 H         2.282301         2.246944        -1.354466
