19
Iteration:  2850charge 0 multiplicity 1
 C         0.223931        -0.766544         0.565492
 C         1.495605        -0.050309         0.192234
 C         1.933603         0.805047        -1.016154
 C         3.378375         0.574718        -0.250800
 C         4.296654        -0.199830        -1.274890
 O         3.426465        -1.370060        -1.235196
 C         2.871819        -0.830228         0.081218
 C         3.216910         1.190811         1.145392
 O         1.895749         0.578277         1.409323
 H         0.337875        -1.849449         0.556763
 H        -0.195056        -0.157368         1.478934
 H        -0.565758        -0.586241        -0.212246
 H         1.927980         0.277043        -2.055569
 H         1.480578         1.759066        -0.944650
 H         4.359938         0.333763        -2.234893
 H         5.288021        -0.458000        -0.969862
 H         3.221633        -1.356435         0.926309
 H         3.995535         0.885179         1.832283
 H         3.144028         2.311418         1.085424
