19
Iteration:  4099charge 0 multiplicity 1
 C         0.180373        -0.709528         0.325656
 C         1.526740        -0.110530         0.325895
 C         1.960048         1.038939        -0.547372
 C         3.332786         0.539275        -0.215690
 C         4.121421         0.021604        -1.398301
 O         3.289540        -1.096821        -1.598188
 C         2.742958        -0.932796        -0.152656
 C         3.492738         0.849614         1.290406
 O         2.049521         0.361634         1.643130
 H         0.013110        -1.240940        -0.711206
 H         0.139851        -1.487097         1.192513
 H        -0.648701         0.068895         0.389394
 H         1.864547         0.699309        -1.641320
 H         1.801069         1.994013        -0.311911
 H         4.174710         0.732749        -2.334792
 H         5.142228        -0.312553        -1.069284
 H         3.143563        -1.836917         0.360603
 H         4.144753         0.097232         1.786185
 H         3.665191         1.868686         1.643131
