19
Iteration:  4308charge 0 multiplicity 1
 C         0.155280        -0.631926         0.553924
 C         1.508403        -0.113079         0.238365
 C         1.933439         1.040828        -0.693704
 C         3.353802         0.582952        -0.251847
 C         4.315977         0.081129        -1.416188
 O         3.316972        -1.103601        -1.547011
 C         2.759045        -0.861188        -0.241453
 C         3.374838         0.745729         1.360665
 O         2.004837         0.233731         1.550805
 H        -0.431202        -1.141500        -0.235876
 H         0.208116        -1.419410         1.426210
 H        -0.508372         0.202702         1.075014
 H         1.813135         0.710206        -1.719289
 H         1.786024         2.041874        -0.473813
 H         4.383318         0.671874        -2.390975
 H         5.252882        -0.317709        -1.052409
 H         3.112493        -1.669086         0.658325
 H         4.112967         0.054880         1.888990
 H         3.463825         1.825426         1.711834
