19
Iteration:  4689
 C         0.122914        -0.736752         0.412907
 C         1.568786        -0.117191         0.199373
 C         1.954800         1.012184        -0.652409
 C         3.416216         0.487614        -0.222475
 C         4.233446        -0.037876        -1.382556
 O         3.115135        -0.982152        -1.632271
 C         2.824291        -0.974856        -0.196095
 C         3.407881         0.921270         1.413377
 O         2.091932         0.353533         1.673866
 H        -0.118013        -1.426516        -0.485776
 H         0.226183        -1.312198         1.461328
 H        -0.723910         0.101397         0.292520
 H         1.990228         0.677049        -1.712803
 H         1.643162         1.924370        -0.282877
 H         4.494436         0.609745        -2.238658
 H         5.075577        -0.555538        -1.045950
 H         3.302735        -1.910330         0.318930
 H         4.180785         0.471123         2.018137
 H         3.423454         2.006981         1.696693
