19
Iteration:  4139
 C         0.102709        -0.640845         0.459590
 C         1.524449        -0.189217         0.210921
 C         2.012732         0.998286        -0.685487
 C         3.413941         0.575103        -0.190097
 C         4.236399        -0.044960        -1.368311
 O         3.226421        -1.017491        -1.581566
 C         2.831860        -0.924691        -0.165522
 C         3.320543         0.949741         1.284570
 O         2.089438         0.198272         1.620705
 H        -0.596535        -0.474009        -0.384345
 H         0.061501        -1.655936         0.823638
 H        -0.032126        -0.028984         1.309918
 H         1.795032         0.873378        -1.710823
 H         1.544776         2.052369        -0.320035
 H         4.404132         0.520586        -2.243093
 H         5.172385        -0.501836        -1.004428
 H         3.167219        -1.718521         0.505275
 H         4.089074         0.475689         1.855346
 H         3.183540         2.054700         1.544374
