19
Iteration:  3349
 C         0.119889        -0.780439         0.491903
 C         1.509390        -0.121877         0.269794
 C         2.004499         0.915414        -0.706517
 C         3.447666         0.440503        -0.170103
 C         4.232671        -0.079322        -1.348899
 O         3.306986        -1.161961        -1.486539
 C         2.847837        -0.979136        -0.090557
 C         3.355640         1.123934         1.141968
 O         1.946298         0.548431         1.540974
 H        -0.753710        -0.054904         0.400460
 H         0.000589        -1.577192        -0.363435
 H        -0.017041        -1.496746         1.412964
 H         1.878963         0.722001        -1.750695
 H         1.722716         1.973854        -0.484431
 H         4.308432         0.560584        -2.220377
 H         5.159664        -0.538982        -0.989701
 H         3.219447        -1.800398         0.565745
 H         4.033753         0.812298         2.028224
 H         3.336221         2.166886         1.034661
