19
Iteration:   287
 C         0.192359        -0.860348         0.703473
 C         1.537602        -0.277684         0.227746
 C         2.163837        -0.591009        -1.087216
 C         3.309632         0.403575        -0.616689
 C         4.662757        -0.408042        -0.450397
 O         3.912717        -1.287552         0.586393
 C         3.015346        -0.221154         0.780740
 C         2.686350         1.768503        -0.506516
 O         1.304120         1.303302        -0.071629
 H        -0.049847        -1.891413         0.261655
 H         0.151726        -0.930225         1.792989
 H        -0.601931        -0.135285         0.431266
 H         2.446005        -1.622061        -1.096321
 H         1.450009        -0.400263        -1.908256
 H         4.997896        -0.995742        -1.265538
 H         5.580219         0.056227         0.056875
 H         3.215305         0.512123         1.536470
 H         2.966013         2.283483         0.419035
 H         2.712921         2.305401        -1.509342
