19
Iteration:    90charge 0 multiplicity 1
 C         0.230360        -0.775704         0.729672
 C         1.542871        -0.285734         0.172029
 C         2.204994        -0.587870        -1.096923
 C         3.331159         0.355024        -0.567880
 C         4.699950        -0.383647        -0.380909
 O         3.981435        -1.229533         0.780640
 C         2.887181        -0.169245         0.876207
 C         2.564933         1.717239        -0.751997
 O         1.324194         1.182223        -0.191517
 H        -0.299499        -1.434819         0.082126
 H         0.474505        -1.212759         1.710716
 H        -0.403898         0.098429         0.880441
 H         2.645547        -1.595767        -1.122983
 H         1.588785        -0.339482        -1.923735
 H         4.978618        -0.996087        -1.177564
 H         5.586813         0.166093         0.030323
 H         2.780887         0.330765         1.864708
 H         2.992845         2.547214        -0.194763
 H         2.382547         1.949702        -1.765422
