19
Iteration:   816
 C         0.156529        -0.740900         0.582563
 C         1.458817        -0.168306         0.171131
 C         2.099258        -0.282144        -1.182840
 C         3.314712         0.470198        -0.527695
 C         4.583574        -0.442007        -0.714514
 O         3.870581        -1.474292         0.152732
 C         2.983407        -0.517037         0.634125
 C         2.718180         1.773400        -0.048851
 O         1.521872         1.257705         0.491590
 H        -0.348937        -1.171409        -0.286601
 H         0.420215        -1.476362         1.319739
 H        -0.492914         0.020631         0.989500
 H         2.552641        -1.270032        -1.359180
 H         1.648359         0.054746        -2.083242
 H         4.884913        -0.918173        -1.674696
 H         5.466040        -0.023234        -0.226449
 H         3.213212        -0.393726         1.723657
 H         3.260420         2.152860         0.763696
 H         2.496341         2.566015        -0.868972
