19
Iteration:  4378
 C         0.190141        -0.678798         0.367771
 C         1.542242        -0.070258         0.261058
 C         1.922247         0.992856        -0.672157
 C         3.424419         0.512544        -0.188424
 C         4.183240         0.012843        -1.420186
 O         3.188366        -1.060540        -1.527384
 C         2.807319        -0.887252        -0.121981
 C         3.425959         0.829849         1.335561
 O         2.052641         0.285814         1.589312
 H        -0.502308        -0.478232        -0.526666
 H         0.216950        -1.770095         0.502141
 H        -0.315979        -0.296009         1.359706
 H         1.773109         0.676007        -1.627088
 H         1.542744         2.026158        -0.457299
 H         4.332711         0.638105        -2.298335
 H         5.175775        -0.366830        -1.002357
 H         3.409165        -1.563983         0.465638
 H         4.263179         0.270249         1.852772
 H         3.451012         1.894442         1.555158
