19
Iteration:  3047
 C         0.093364        -0.751084         0.427596
 C         1.523997        -0.142156         0.360900
 C         1.944670         0.852152        -0.816805
 C         3.405167         0.501457        -0.246339
 C         4.254311        -0.180638        -1.366635
 O         3.427606        -1.265284        -1.351708
 C         2.865651        -0.946789         0.047436
 C         3.318524         1.198288         1.113909
 O         1.913704         0.639187         1.498031
 H        -0.370318        -0.572490        -0.455007
 H         0.231933        -1.857155         0.458435
 H        -0.405485        -0.568785         1.282077
 H         1.786927         0.466208        -1.941286
 H         1.654996         1.922862        -0.661477
 H         4.173846         0.451003        -2.272408
 H         5.261795        -0.519263        -1.195057
 H         3.240507        -1.702981         0.741351
 H         3.924158         0.862543         1.959129
 H         3.326913         2.340107         1.063770
