19
Iteration:  2907
 C         0.201304        -0.749375         0.406102
 C         1.564850        -0.129349         0.285593
 C         1.861303         0.746889        -0.863186
 C         3.341483         0.595330        -0.321233
 C         4.371957        -0.174979        -1.273649
 O         3.370562        -1.294389        -1.220576
 C         2.858670        -0.885068         0.021821
 C         3.260067         1.176301         1.100011
 O         1.947139         0.613881         1.493340
 H        -0.088719        -0.768644         1.454495
 H        -0.583540         0.068912         0.068852
 H         0.022200        -1.648768        -0.245462
 H         1.610695         0.147856        -1.851623
 H         1.321601         1.771882        -0.876591
 H         4.367260         0.270223        -2.297392
 H         5.356263        -0.481548        -0.911985
 H         3.282005        -1.415594         0.841111
 H         4.102126         0.907640         1.700900
 H         3.167261         2.255623         1.051602
