19
Iteration:   624charge 0 multiplicity 1
 C         0.158488        -0.721471         0.653578
 C         1.433463        -0.197093         0.086624
 C         2.092436        -0.318427        -1.274309
 C         3.330756         0.343091        -0.503079
 C         4.674553        -0.391239        -0.616226
 O         4.001938        -1.403701         0.402805
 C         2.936060        -0.447340         0.744579
 C         2.648627         1.701010        -0.322778
 O         1.446916         1.244226         0.378288
 H        -0.710791        -0.359520         0.043640
 H         0.191177        -1.770560         0.596912
 H         0.102264        -0.471844         1.747387
 H         2.141974        -1.414656        -1.621356
 H         1.581118         0.291693        -2.063650
 H         4.924781        -0.809332        -1.616243
 H         5.561800         0.099570        -0.096569
 H         3.152824        -0.005663         1.711698
 H         3.215919         2.336017         0.457203
 H         2.521694         2.224657        -1.298448
