19
Iteration:   706charge 0 multiplicity 1
 C         0.267902        -0.856026         0.694474
 C         1.531898        -0.279771         0.147111
 C         2.064772        -0.155553        -1.314084
 C         3.381948         0.446167        -0.436921
 C         4.615773        -0.519621        -0.604766
 O         3.860387        -1.476728         0.289819
 C         2.927295        -0.474295         0.703933
 C         2.657782         1.796816        -0.193923
 O         1.440914         1.307342         0.328421
 H         0.379742        -1.566184         1.510497
 H        -0.220253         0.039922         1.226078
 H        -0.389923        -1.241007        -0.076688
 H         2.336865        -1.085123        -1.744429
 H         1.626548         0.605450        -2.037784
 H         4.798210        -0.855176        -1.635659
 H         5.548900        -0.243892        -0.146982
 H         3.239874        -0.078000         1.702135
 H         3.134356         2.660614         0.251920
 H         2.509275         2.169947        -1.313599
