19
Iteration:  1908
 C         0.108002        -0.769434         0.552319
 C         1.517615        -0.141296         0.287849
 C         1.895656         0.320600        -1.151590
 C         3.366121         0.578776        -0.449482
 C         4.486813        -0.246808        -1.093044
 O         3.575621        -1.511296        -0.725038
 C         2.943502        -0.759906         0.299004
 C         3.045072         1.468439         0.732536
 O         1.776135         0.981543         1.096960
 H         0.089259        -1.855404         0.440913
 H        -0.142838        -0.540826         1.634490
 H        -0.683398        -0.289184        -0.143345
 H         1.977993        -0.553944        -1.763015
 H         1.434967         1.230014        -1.628209
 H         4.709331        -0.127513        -2.108222
 H         5.306396        -0.353929        -0.404249
 H         3.398321        -0.906134         1.293577
 H         3.907844         1.110757         1.504618
 H         3.172821         2.542436         0.652852
