19
Iteration:   577charge 0 multiplicity 1
 C         0.253395        -0.919045         0.676161
 C         1.484674        -0.166130         0.231841
 C         2.080059        -0.375982        -1.194835
 C         3.285494         0.359443        -0.594327
 C         4.647760        -0.439569        -0.483380
 O         3.850703        -1.440649         0.321585
 C         2.953714        -0.221579         0.770211
 C         2.749446         1.785379        -0.300202
 O         1.441575         1.278466         0.166936
 H        -0.217237        -0.390089         1.500005
 H        -0.539110        -0.990465        -0.129486
 H         0.580179        -1.922755         0.972281
 H         2.241171        -1.331779        -1.615266
 H         1.552751         0.199629        -1.912863
 H         4.858090        -0.891194        -1.485223
 H         5.515456         0.047120         0.027589
 H         3.201993        -0.023546         1.831704
 H         3.361362         2.395217         0.388304
 H         2.466719         2.427901        -1.089034
