19
Iteration:  1812charge 0 multiplicity 1
 C         0.224091        -0.826815         0.550981
 C         1.486488        -0.152608         0.264164
 C         1.917735         0.321957        -1.234665
 C         3.277660         0.516679        -0.426704
 C         4.429846        -0.318680        -0.998744
 O         3.550618        -1.465013        -0.665487
 C         2.969962        -0.698023         0.358578
 C         3.144373         1.509941         0.647994
 O         1.720704         1.009049         1.050572
 H        -0.568273        -0.211154         0.251409
 H         0.191333        -1.805213         0.086677
 H         0.227637        -0.927050         1.664755
 H         2.145825        -0.447948        -1.996155
 H         1.239060         1.127363        -1.675586
 H         4.692920        -0.153550        -2.077816
 H         5.343498        -0.480512        -0.296225
 H         3.327016        -0.841346         1.446662
 H         3.747303         1.394501         1.512547
 H         3.059981         2.596729         0.544698
