19
Iteration:  4461
 C         0.042557        -0.565514         0.467308
 C         1.521316        -0.146325         0.243920
 C         1.957854         0.930076        -0.652224
 C         3.399555         0.518980        -0.159425
 C         4.267265         0.110134        -1.298062
 O         3.166243        -1.064611        -1.653681
 C         2.831502        -0.920844        -0.142330
 C         3.413717         0.899704         1.253243
 O         2.137850         0.153274         1.635539
 H        -0.274542        -1.265298        -0.230313
 H        -0.081620        -0.889648         1.501605
 H        -0.528997         0.305966         0.190156
 H         1.794497         0.388155        -1.931225
 H         1.509794         1.971795        -0.538261
 H         4.449850         0.906625        -2.096625
 H         5.253265        -0.356006        -0.996788
 H         3.345728        -1.665891         0.348438
 H         4.364168         0.444259         1.594136
 H         3.249258         1.994812         1.456727
