19
Iteration:  4195
 C         0.025297        -0.694734         0.504360
 C         1.442211        -0.131670         0.237532
 C         1.910906         1.038926        -0.596887
 C         3.347092         0.494069        -0.186262
 C         4.249870         0.100580        -1.352159
 O         3.387056        -1.148696        -1.561110
 C         2.732343        -0.940621        -0.275436
 C         3.465841         0.808041         1.267033
 O         2.106293         0.377238         1.569548
 H        -0.375012        -0.698344        -0.555191
 H         0.161500        -1.686974         0.973195
 H        -0.584363         0.003047         1.033228
 H         1.888141         0.851507        -1.720969
 H         1.616893         2.014844        -0.142651
 H         4.331621         0.730834        -2.234282
 H         5.229668        -0.181272        -0.981679
 H         2.992632        -1.722120         0.527891
 H         4.185162         0.206678         1.778083
 H         3.731655         1.902930         1.559721
