19
Iteration:  2576
 C         0.248297        -0.757289         0.523941
 C         1.528228        -0.074542         0.205837
 C         1.952464         0.780827        -0.976080
 C         3.386141         0.512268        -0.255327
 C         4.308292        -0.216721        -1.178367
 O         3.474988        -1.456662        -1.088645
 C         2.786148        -0.933036         0.115983
 C         3.111774         1.404827         0.875095
 O         1.919593         0.679474         1.384620
 H         0.504653        -1.473116         1.282795
 H        -0.543124        -0.232913         0.858171
 H        -0.042682        -1.277214        -0.341743
 H         1.853806         0.407614        -2.041749
 H         1.650695         1.909876        -0.906783
 H         4.615501         0.052517        -2.195307
 H         5.236006        -0.622451        -0.686132
 H         2.985755        -1.598118         0.936262
 H         3.820048         1.419411         1.642595
 H         2.903998         2.429050         0.546144
