19
Iteration:  2372charge 0 multiplicity 1
 C         0.062527        -0.680725         0.458880
 C         1.519140        -0.238943         0.202813
 C         1.853501         0.495634        -1.019184
 C         3.290449         0.614799        -0.427768
 C         4.420044        -0.232178        -1.165223
 O         3.465531        -1.334867        -0.998470
 C         2.886635        -0.811265         0.221504
 C         3.236294         1.333926         0.928279
 O         1.953900         0.771782         1.384746
 H        -0.622495        -0.254663        -0.381040
 H         0.077002        -1.880942         0.415865
 H        -0.306744        -0.301339         1.469118
 H         2.116775        -0.227802        -1.778311
 H         1.361043         1.343755        -1.347445
 H         4.647996        -0.053054        -2.286920
 H         5.422483        -0.263925        -0.580748
 H         3.232346        -1.299319         1.091822
 H         4.114568         0.953209         1.683417
 H         3.175852         2.401513         0.707117
