19
Iteration:  4991charge 0 multiplicity 1
 C         0.125389        -0.750618         0.433148
 C         1.518070        -0.150409         0.240142
 C         2.019165         1.035146        -0.579769
 C         3.464937         0.518610        -0.239925
 C         4.225633        -0.066082        -1.464741
 O         3.168870        -1.046189        -1.564845
 C         2.836441        -0.904559        -0.174485
 C         3.355937         0.920003         1.361297
 O         2.048506         0.368281         1.622450
 H        -0.307195        -0.939423        -0.603766
 H         0.292971        -1.724550         0.956944
 H        -0.664189        -0.008881         0.806696
 H         1.881889         0.909457        -1.602729
 H         1.690838         1.968411        -0.220482
 H         4.319601         0.560037        -2.383927
 H         5.177495        -0.595183        -1.296788
 H         3.174925        -1.706133         0.408622
 H         4.108838         0.352906         1.994049
 H         3.450429         1.983461         1.666558
