19
Iteration:  2758
 C         0.204757        -0.753523         0.489037
 C         1.540302        -0.118057         0.152646
 C         1.878093         0.775619        -0.944446
 C         3.372461         0.583077        -0.309086
 C         4.294518        -0.190668        -1.280458
 O         3.427381        -1.376774        -1.076435
 C         2.901684        -0.866742         0.081035
 C         3.191629         1.235863         1.095572
 O         1.943772         0.623704         1.313377
 H        -0.576953        -0.382701        -0.266877
 H         0.194203        -1.776339         0.814576
 H        -0.076688        -0.282328         1.456492
 H         1.891738         0.290712        -1.827424
 H         1.343230         1.683095        -0.951070
 H         4.356058         0.185697        -2.290294
 H         5.271685        -0.473269        -0.900088
 H         3.325645        -1.345411         1.065366
 H         3.909045         0.968603         2.001144
 H         2.978615         2.368681         1.248635
