19
Iteration:  1662
 C         0.314381        -0.823595         0.558890
 C         1.559156        -0.112107         0.231753
 C         1.915615         0.308573        -1.274697
 C         3.366010         0.570075        -0.400292
 C         4.429982        -0.392153        -0.982329
 O         3.586940        -1.533041        -0.534448
 C         2.945113        -0.697448         0.343077
 C         2.976104         1.602143         0.578399
 O         1.656335         1.021745         1.047194
 H         0.419855        -1.929261         0.590060
 H        -0.009417        -0.565232         1.610274
 H        -0.500919        -0.497752        -0.174687
 H         1.960922        -0.533321        -1.937984
 H         1.448428         1.184072        -1.699122
 H         4.733045        -0.384288        -2.037995
 H         5.336256        -0.432963        -0.417291
 H         3.234349        -0.943577         1.331511
 H         3.776846         1.514333         1.409860
 H         2.782371         2.490319         0.032605
