19
Iteration:  1655charge 0 multiplicity 1
 C         0.291185        -0.844121         0.525294
 C         1.530034        -0.120524         0.246145
 C         1.908647         0.276769        -1.227334
 C         3.350210         0.537621        -0.385170
 C         4.413578        -0.386315        -0.967845
 O         3.630152        -1.535819        -0.611400
 C         2.945746        -0.694977         0.423903
 C         3.031704         1.586570         0.559113
 O         1.634136         1.094985         1.026068
 H         0.436213        -1.922619         0.243984
 H         0.060895        -0.627586         1.566735
 H        -0.534433        -0.467327        -0.029323
 H         1.898777        -0.611464        -1.975512
 H         1.369271         1.129732        -1.613711
 H         4.615504        -0.366462        -2.059997
 H         5.341411        -0.480136        -0.296267
 H         3.402366        -0.838302         1.462998
 H         3.912026         1.576280         1.342108
 H         2.766277         2.588910         0.201399
