19
Iteration:  1361charge 0 multiplicity 1
 C         0.263617        -0.895704         0.478176
 C         1.500322        -0.138709         0.235820
 C         1.958170         0.158224        -1.237853
 C         3.274350         0.482856        -0.520987
 C         4.433554        -0.361170        -0.848391
 O         3.694462        -1.577973        -0.304696
 C         2.971785        -0.641771         0.496824
 C         2.931966         1.653470         0.397632
 O         1.689076         1.203997         0.861492
 H        -0.554796        -0.451456        -0.139746
 H         0.291294        -1.996727         0.330620
 H        -0.138607        -0.531757         1.432784
 H         1.999537        -0.745358        -1.794697
 H         1.357260         0.960645        -1.759128
 H         4.859341        -0.640244        -1.779173
 H         5.301060        -0.142189        -0.175109
 H         3.427679        -0.621748         1.527373
 H         3.614982         1.697462         1.215658
 H         2.854228         2.556825        -0.212094
