19
Iteration:  3717
 C         0.092077        -0.572231         0.473681
 C         1.486874        -0.135590         0.231416
 C         1.934055         1.055264        -0.575258
 C         3.356165         0.510738        -0.244269
 C         4.246904         0.062685        -1.381194
 O         3.380676        -1.149588        -1.565616
 C         2.777160        -0.995480        -0.242465
 C         3.313810         0.924061         1.265589
 O         2.120188         0.224941         1.608962
 H        -0.585385        -0.389771        -0.347280
 H         0.091065        -1.735883         0.710690
 H        -0.299997        -0.136700         1.449943
 H         1.619434         0.876530        -1.571969
 H         1.714808         2.035138        -0.146799
 H         4.268519         0.711789        -2.309664
 H         5.238014        -0.323722        -1.031121
 H         3.210000        -1.769805         0.397069
 H         4.201009         0.487695         1.932518
 H         3.202137         2.013885         1.442092
