19
Iteration:  1165
 C         0.206849        -0.876066         0.664765
 C         1.454378        -0.169566         0.134226
 C         2.067483         0.081959        -1.261876
 C         3.305518         0.471316        -0.447266
 C         4.482508        -0.397761        -0.776626
 O         3.837700        -1.582705        -0.143894
 C         2.836780        -0.639562         0.507541
 C         2.868810         1.758101         0.148374
 O         1.670642         1.218278         0.715399
 H        -0.705108        -0.632374         0.097815
 H         0.231610        -1.928393         0.362833
 H        -0.044981        -0.805556         1.738495
 H         2.082242        -0.799967        -1.843035
 H         1.593882         0.895862        -1.854421
 H         4.773923        -0.566939        -1.792993
 H         5.220822        -0.227338        -0.058963
 H         2.973793        -0.465917         1.555853
 H         3.481833         2.164485         1.021301
 H         2.750784         2.642918        -0.431590
