19
Iteration:  3472charge 0 multiplicity 1
 C         0.218919        -0.696243         0.428368
 C         1.548258        -0.162822         0.303032
 C         1.939694         0.931534        -0.768544
 C         3.441279         0.525034        -0.154642
 C         4.221247        -0.101072        -1.309077
 O         3.213537        -1.080900        -1.524839
 C         2.815473        -0.902813        -0.093053
 C         3.334767         1.045704         1.225232
 O         2.039292         0.390132         1.560321
 H         0.229159        -1.707324        -0.117028
 H        -0.240645        -0.751476         1.504294
 H        -0.529830        -0.168240        -0.158724
 H         1.700404         0.526104        -1.710003
 H         1.460383         1.888636        -0.549847
 H         4.449193         0.471220        -2.243284
 H         5.195319        -0.590010        -1.075471
 H         3.247810        -1.758093         0.473402
 H         4.075185         0.614182         1.942101
 H         3.284909         2.035572         1.347776
