19
Iteration:  4138
 C         0.108194        -0.642876         0.453606
 C         1.515252        -0.197316         0.213281
 C         2.012782         1.000561        -0.689767
 C         3.409862         0.567493        -0.194578
 C         4.241370        -0.045045        -1.373827
 O         3.225941        -1.014916        -1.581991
 C         2.826721        -0.920575        -0.160532
 C         3.327354         0.957918         1.282752
 O         2.090497         0.197112         1.630125
 H        -0.552465        -0.497005        -0.364999
 H         0.033098        -1.626077         0.805664
 H        -0.053127        -0.031707         1.293058
 H         1.793158         0.925206        -1.714649
 H         1.540795         2.076425        -0.329828
 H         4.407888         0.518390        -2.227261
 H         5.171547        -0.503197        -1.032673
 H         3.184412        -1.769610         0.544871
 H         4.076032         0.484624         1.888176
 H         3.191515         2.036737         1.546157
