19
Iteration:  3380charge 0 multiplicity 1
 C         0.134556        -0.634294         0.504620
 C         1.541793        -0.134343         0.193648
 C         1.941495         0.859053        -0.777922
 C         3.415586         0.596164        -0.281370
 C         4.257611        -0.080075        -1.338443
 O         3.293187        -1.159551        -1.415358
 C         2.873714        -0.906777        -0.077962
 C         3.288743         1.062863         1.199227
 O         2.002038         0.341107         1.549144
 H        -0.670723        -0.151411         0.011050
 H         0.142081        -1.610813         0.296970
 H        -0.075908        -0.537792         1.594392
 H         1.793213         0.441719        -1.828718
 H         1.506779         1.905588        -0.543764
 H         4.567054         0.454000        -2.247976
 H         5.220360        -0.448007        -0.836624
 H         3.184531        -1.632750         0.696345
 H         4.104389         0.622170         1.830066
 H         3.215259         2.075642         1.377715
