19
Iteration:   411
 C         0.214031        -0.934989         0.771112
 C         1.509394        -0.267341         0.144352
 C         2.152369        -0.447659        -1.252986
 C         3.307472         0.355970        -0.538104
 C         4.600297        -0.463571        -0.428241
 O         3.932142        -1.272130         0.505868
 C         2.920881        -0.265354         0.739698
 C         2.719867         1.751550        -0.460801
 O         1.397854         1.361781         0.087639
 H        -0.697467        -0.300917         0.924200
 H        -0.167797        -1.837898         0.178364
 H         0.402712        -1.250712         1.836984
 H         2.429832        -1.493708        -1.545758
 H         1.565435        -0.019525        -2.090327
 H         4.735223        -1.003879        -1.437982
 H         5.543014         0.056452        -0.063154
 H         3.102496         0.185405         1.777546
 H         3.111248         2.577373         0.351700
 H         2.758206         2.112276        -1.555737
