19
Iteration:   432charge 0 multiplicity 1
 C         0.362151        -0.782576         0.680328
 C         1.535946        -0.179694         0.107317
 C         2.134481        -0.368622        -1.251067
 C         3.335020         0.390861        -0.687358
 C         4.575421        -0.486413        -0.491093
 O         3.930419        -1.342378         0.623659
 C         2.902156        -0.296731         0.783157
 C         2.597757         1.733063        -0.481680
 O         1.379369         1.197698         0.218424
 H        -0.664693        -0.461077         0.242398
 H         0.453828        -1.922596         0.500381
 H         0.248252        -0.520242         1.798080
 H         2.239074        -1.463695        -1.531987
 H         1.631158         0.105794        -2.144809
 H         4.987499        -1.058458        -1.404126
 H         5.403259        -0.012392         0.129663
 H         3.060730         0.124146         1.847243
 H         3.261192         2.429786         0.265288
 H         2.261462         2.171464        -1.513369
