19
Iteration:   786charge 0 multiplicity 1
 C         0.142888        -0.741971         0.621444
 C         1.480797        -0.254590         0.178586
 C         2.053364        -0.157375        -1.271076
 C         3.297289         0.425803        -0.464623
 C         4.541505        -0.428253        -0.622072
 O         3.964625        -1.498691         0.215708
 C         2.996096        -0.484869         0.663954
 C         2.703137         1.705809        -0.200030
 O         1.522860         1.232235         0.476173
 H        -0.627483        -0.071632         0.154714
 H         0.079468        -1.762118         0.305197
 H         0.006861        -0.617195         1.762564
 H         2.420830        -0.957804        -1.948514
 H         1.613458         0.599283        -1.801860
 H         4.749832        -0.772515        -1.637893
 H         5.448853        -0.001757        -0.244876
 H         3.321442        -0.220183         1.686671
 H         3.275475         2.207605         0.569184
 H         2.487541         2.270611        -1.210462
