19
Iteration:  1243charge 0 multiplicity 1
 C         0.150431        -0.793358         0.562822
 C         1.448355        -0.130669         0.171178
 C         2.036586         0.110141        -1.223315
 C         3.297385         0.437245        -0.431233
 C         4.544498        -0.391889        -0.826948
 O         3.864164        -1.584595        -0.218084
 C         2.883584        -0.652204         0.543462
 C         2.832470         1.713881         0.215356
 O         1.685337         1.159147         0.795030
 H         0.217164        -1.870624         0.812788
 H        -0.255376        -0.213193         1.408542
 H        -0.687878        -0.807146        -0.125863
 H         2.149619        -0.765595        -1.781781
 H         1.563905         0.953908        -1.798271
 H         4.502509        -0.538697        -1.934597
 H         5.583562        -0.174824        -0.570012
 H         2.967297        -0.584613         1.614925
 H         3.502730         2.072153         1.080916
 H         2.507720         2.402743        -0.500380
