19
Iteration:  3618
 C         0.140069        -0.777973         0.490689
 C         1.524157        -0.120545         0.267641
 C         2.011954         1.084605        -0.713980
 C         3.410668         0.607156        -0.216835
 C         4.257841        -0.084114        -1.363341
 O         3.229060        -1.078947        -1.495685
 C         2.790747        -0.789619        -0.186906
 C         3.407241         0.844033         1.290810
 O         1.996586         0.280769         1.547294
 H        -0.441686        -0.186129         1.206428
 H        -0.716387        -0.851577        -0.413042
 H         0.340163        -1.868238         0.797832
 H         1.800895         0.675376        -1.710907
 H         1.692720         2.040501        -0.509640
 H         4.251283         0.515201        -2.326347
 H         5.286542        -0.363494        -1.087656
 H         3.175605        -1.413417         0.638422
 H         4.280975         0.382465         1.779863
 H         3.358694         1.854620         1.535826
