19
Iteration:  4170charge 0 multiplicity 1
 C         0.058433        -0.679923         0.551907
 C         1.482765        -0.109544         0.258360
 C         1.898606         1.037964        -0.734852
 C         3.341395         0.469822        -0.219114
 C         4.320382         0.041236        -1.338076
 O         3.404046        -1.069361        -1.606014
 C         2.735100        -0.920427        -0.216467
 C         3.401494         0.813448         1.244719
 O         2.034751         0.318611         1.625788
 H        -0.604153        -0.394321        -0.191992
 H         0.095105        -1.670866         0.814973
 H        -0.183980        -0.062539         1.365161
 H         1.726212         0.794689        -1.733749
 H         1.642469         2.089817        -0.255700
 H         4.418356         0.675071        -2.163302
 H         5.285188        -0.287759        -0.959970
 H         3.117263        -1.773453         0.604414
 H         4.173144         0.153607         1.648425
 H         3.604271         1.830505         1.545242
