19
Iteration:   259charge 0 multiplicity 1
 C         0.272247        -0.754948         0.810215
 C         1.511197        -0.181949         0.074781
 C         2.257232        -0.510036        -1.291571
 C         3.288081         0.369403        -0.563459
 C         4.571727        -0.376350        -0.350442
 O         3.982407        -1.252042         0.634494
 C         2.861322        -0.330036         0.830165
 C         2.609246         1.630883        -0.653159
 O         1.383789         1.221255         0.058470
 H        -0.384842        -1.210265         0.043861
 H         0.702238        -1.551139         1.428338
 H        -0.297618        -0.061181         1.467095
 H         2.578595        -1.580174        -1.313004
 H         1.769615        -0.120543        -2.217615
 H         4.757119        -1.024421        -1.271378
 H         5.448211         0.094010         0.055418
 H         2.863074         0.253666         1.852838
 H         2.879934         2.642589        -0.171035
 H         2.526579         2.083671        -1.665342
