19
Iteration:  2629
 C         0.145393        -0.732076         0.413357
 C         1.550182        -0.189255         0.318999
 C         1.900149         0.665151        -0.890354
 C         3.244823         0.513191        -0.327790
 C         4.274117        -0.102500        -1.180666
 O         3.559902        -1.418626        -1.126011
 C         2.841646        -0.940076         0.156680
 C         3.291358         1.245227         0.984763
 O         1.895902         0.848079         1.281313
 H        -0.256559        -0.529164         1.459822
 H        -0.509971        -0.242124        -0.247443
 H         0.098560        -1.812098         0.322188
 H         1.774309         0.051065        -1.746681
 H         1.444658         1.650508        -0.936739
 H         4.355006         0.233696        -2.204551
 H         5.288068        -0.341024        -0.804046
 H         3.342507        -1.362176         0.915186
 H         3.987388         0.874850         1.670590
 H         3.366834         2.269570         0.945755
