19
Iteration:  3815charge 0 multiplicity 1
 C         0.160134        -0.679585         0.378635
 C         1.549885        -0.146397         0.280190
 C         1.952972         1.065772        -0.649269
 C         3.366805         0.449688        -0.202795
 C         4.207934         0.062136        -1.351967
 O         3.192861        -1.067422        -1.641905
 C         2.772786        -0.948551        -0.158633
 C         3.413388         0.921404         1.278796
 O         2.134463         0.240941         1.708969
 H         0.006457        -1.578143        -0.055409
 H        -0.232330        -0.731374         1.364163
 H        -0.431650        -0.062870        -0.228892
 H         1.670956         1.048068        -1.860337
 H         1.726275         2.077797        -0.103789
 H         4.278223         0.736360        -2.239860
 H         5.142527        -0.502848        -1.265814
 H         3.053547        -1.797416         0.497194
 H         4.319613         0.521534         1.946091
 H         3.296521         1.989106         1.530151
