19
Iteration:  2368charge 0 multiplicity 1
 C         0.046156        -0.681717         0.453548
 C         1.518982        -0.234248         0.247586
 C         1.857410         0.464731        -1.051723
 C         3.309794         0.585823        -0.416652
 C         4.392007        -0.201147        -1.159093
 O         3.489921        -1.365833        -1.009157
 C         2.874558        -0.805079         0.192454
 C         3.268293         1.343973         0.950658
 O         1.939137         0.796844         1.386779
 H        -0.608281        -0.260980        -0.347557
 H         0.105935        -1.708751         0.356543
 H        -0.268281        -0.387412         1.429471
 H         2.003230        -0.220050        -1.862379
 H         1.234515         1.382031        -1.369544
 H         4.644554         0.034118        -2.143108
 H         5.266464        -0.253563        -0.534539
 H         3.428097        -1.317460         1.104367
 H         3.994427         0.882708         1.441535
 H         3.281929         2.466704         0.847214
