19
Iteration:  3906charge 0 multiplicity 1
 C         0.099144        -0.639265         0.462249
 C         1.471553        -0.119310         0.194568
 C         1.957555         0.962595        -0.662380
 C         3.396752         0.513579        -0.158535
 C         4.263044        -0.039364        -1.391632
 O         3.195357        -0.993298        -1.606581
 C         2.871867        -0.909935        -0.201086
 C         3.345103         0.876410         1.293700
 O         2.108607         0.249522         1.665678
 H        -0.308905        -1.274134        -0.378898
 H         0.256542        -1.316186         1.364236
 H        -0.692946         0.140341         0.687884
 H         1.894358         0.649728        -1.746098
 H         1.513812         1.983718        -0.317880
 H         4.533963         0.675504        -2.146939
 H         5.216901        -0.493756        -0.912439
 H         3.307196        -1.654093         0.426154
 H         4.373830         0.644086         1.822872
 H         3.331268         1.982573         1.364728
