19
Iteration:  4219charge 0 multiplicity 1
 C         0.173198        -0.636454         0.386164
 C         1.553226        -0.156045         0.267810
 C         1.974402         1.052830        -0.603593
 C         3.415466         0.589140        -0.225013
 C         4.187194        -0.020298        -1.419191
 O         3.220507        -1.069863        -1.530170
 C         2.836617        -0.898646        -0.130167
 C         3.355209         0.813230         1.259108
 O         2.028347         0.241760         1.618285
 H        -0.132946        -1.104933        -0.635152
 H         0.373553        -1.381555         1.253741
 H        -0.512676         0.251208         0.596499
 H         1.700754         0.789103        -1.716895
 H         1.738026         1.971967        -0.234711
 H         4.220520         0.682762        -2.330614
 H         5.207525        -0.377630        -1.194369
 H         3.147448        -1.628961         0.506581
 H         4.148843         0.359589         1.888465
 H         3.333803         1.934538         1.590497
