19
Iteration:  1632
 C         0.099484        -0.941343         0.516524
 C         1.488839        -0.222866         0.326608
 C         1.939967         0.309360        -1.094732
 C         3.345362         0.521942        -0.343517
 C         4.442676        -0.300874        -1.040440
 O         3.701597        -1.586915        -0.577876
 C         2.925163        -0.788490         0.393398
 C         3.015540         1.662193         0.527945
 O         1.742850         1.238789         0.929105
 H         0.020037        -1.640096        -0.359110
 H         0.017483        -1.439485         1.490116
 H        -0.720037        -0.238171         0.477579
 H         1.989409        -0.499509        -1.904334
 H         1.490527         1.195839        -1.468420
 H         4.716275        -0.353879        -2.119837
 H         5.327453        -0.261352        -0.330353
 H         3.251357        -1.140964         1.402947
 H         3.855119         1.697634         1.381408
 H         3.011880         2.560960        -0.051376
