19
Iteration:  1352charge 0 multiplicity 1
 C         0.223098        -0.873579         0.552808
 C         1.548643        -0.177674         0.202140
 C         1.987442         0.156303        -1.226412
 C         3.335205         0.536779        -0.526358
 C         4.437247        -0.426449        -0.841355
 O         3.696449        -1.591379        -0.322300
 C         2.958585        -0.574311         0.519515
 C         2.986046         1.701201         0.318212
 O         1.588791         1.136484         0.876422
 H        -0.440682        -0.178448        -0.069786
 H         0.166871        -1.893607         0.051516
 H        -0.037983        -0.953794         1.641860
 H         2.212106        -0.672280        -1.931321
 H         1.469289         0.988068        -1.687070
 H         4.632720        -0.466841        -1.938905
 H         5.321469        -0.373813        -0.123165
 H         3.147843        -0.551599         1.593513
 H         3.644223         1.783635         1.284719
 H         2.758360         2.674862        -0.100608
