19
Iteration:  4137charge 0 multiplicity 1
 C         0.114766        -0.644376         0.447510
 C         1.507511        -0.204867         0.215520
 C         2.011023         1.004551        -0.691380
 C         3.405785         0.559409        -0.198942
 C         4.246235        -0.045121        -1.377514
 O         3.225330        -1.013213        -1.582217
 C         2.821467        -0.916703        -0.155376
 C         3.333643         0.965594         1.281035
 O         2.091276         0.196439         1.638404
 H        -0.515822        -0.515889        -0.354034
 H         0.005910        -1.614926         0.792267
 H        -0.087604        -0.023832         1.288330
 H         1.790105         0.971148        -1.733073
 H         1.549901         2.078293        -0.345450
 H         4.415061         0.530292        -2.230382
 H         5.174563        -0.505868        -1.058563
 H         3.198402        -1.809203         0.572438
 H         4.072185         0.493169         1.924709
 H         3.200682         2.014177         1.544597
