19
Iteration:  1757charge 0 multiplicity 1
 C         0.136891        -0.759406         0.531636
 C         1.479524        -0.161657         0.188329
 C         1.961707         0.360787        -1.146523
 C         3.358453         0.514833        -0.422789
 C         4.408032        -0.354574        -1.055168
 O         3.705125        -1.535302        -0.592554
 C         2.943453        -0.725819         0.393392
 C         2.963061         1.605621         0.585615
 O         1.792261         0.938198         1.076937
 H        -0.080778        -0.248680         1.426387
 H        -0.636065        -0.492237        -0.188954
 H         0.177299        -1.855581         0.693327
 H         1.883901        -0.417735        -1.883943
 H         1.465211         1.352557        -1.517305
 H         4.549728        -0.256932        -2.159824
 H         5.474471        -0.332299        -0.625704
 H         3.094363        -1.043997         1.491938
 H         3.562258         1.594480         1.497020
 H         2.699221         2.675275         0.189885
