19
Iteration:  4871charge 0 multiplicity 1
 C         0.133474        -0.724333         0.378184
 C         1.516090        -0.095276         0.304047
 C         1.998179         1.027032        -0.606730
 C         3.414029         0.474490        -0.212623
 C         4.207942         0.052290        -1.403051
 O         3.222798        -1.035976        -1.532967
 C         2.775273        -0.889817        -0.124312
 C         3.384642         0.793261         1.209530
 O         2.092275         0.339192         1.623397
 H        -0.113299        -1.403025        -0.456216
 H        -0.007608        -1.276782         1.260938
 H        -0.723874        -0.073841         0.207724
 H         1.663375         0.808366        -1.656871
 H         1.796462         2.036574        -0.165671
 H         4.372713         0.691389        -2.275865
 H         5.155147        -0.364025        -1.153875
 H         3.127906        -1.839871         0.553181
 H         4.220903         0.224443         1.774609
 H         3.464672         1.872800         1.481063
