19
Iteration:  2597
 C         0.148846        -0.776648         0.521005
 C         1.525360        -0.155501         0.217842
 C         2.028901         0.728906        -1.011546
 C         3.376753         0.565844        -0.326067
 C         4.367479        -0.321340        -1.237517
 O         3.410802        -1.415228        -1.123049
 C         2.898610        -0.796886         0.107645
 C         3.106825         1.400469         1.051268
 O         1.892343         0.686482         1.406327
 H         0.151798        -0.969535         1.604905
 H        -0.611773        -0.113928         0.352827
 H        -0.078270        -1.634337        -0.056294
 H         1.993381         0.100468        -1.924115
 H         1.555462         1.733973        -1.261182
 H         4.390849         0.088765        -2.254683
 H         5.430897        -0.653011        -0.920450
 H         3.360377        -1.202974         0.940887
 H         3.804434         1.327159         1.814039
 H         2.872798         2.421027         0.862274
