19
Iteration:    17
 C         0.138290        -0.925068         0.732119
 C         1.464815        -0.303057         0.218231
 C         2.140787        -0.654823        -1.068381
 C         3.330747         0.203861        -0.608167
 C         4.707697        -0.237162        -0.362982
 O         4.012338        -1.144157         0.831969
 C         2.828027        -0.089142         0.846096
 C         2.707195         1.549389        -0.815354
 O         1.365626         1.329597        -0.196839
 H        -0.355060        -0.086477         1.263167
 H        -0.388711        -1.423810        -0.095892
 H         0.342535        -1.703050         1.488095
 H         2.349420        -1.739606        -1.291541
 H         1.680399        -0.140383        -1.927177
 H         5.406884        -0.783371        -1.035756
 H         5.312185         0.567155         0.121777
 H         2.951569         0.582197         1.746673
 H         3.344129         2.387731        -0.279377
 H         2.650189         2.043789        -1.876007
