19
Iteration:   409charge 0 multiplicity 1
 C         0.203801        -0.944967         0.771615
 C         1.498943        -0.280032         0.150419
 C         2.154307        -0.456143        -1.233856
 C         3.322301         0.377625        -0.557558
 C         4.596825        -0.455776        -0.440878
 O         3.930094        -1.265405         0.503083
 C         2.912145        -0.276225         0.749811
 C         2.732640         1.759245        -0.452224
 O         1.397215         1.368447         0.074117
 H        -0.721529        -0.263537         0.987527
 H        -0.177152        -1.788396         0.159636
 H         0.410630        -1.321045         1.841457
 H         2.421990        -1.525076        -1.509720
 H         1.550164        -0.041084        -2.091645
 H         4.778707        -0.967959        -1.422416
 H         5.550868         0.025429        -0.016155
 H         3.111205         0.135270         1.777089
 H         3.156428         2.523484         0.340689
 H         2.784145         2.093361        -1.578331
