19
Iteration:   566charge 0 multiplicity 1
 C         0.309489        -0.902021         0.694589
 C         1.484226        -0.105798         0.174319
 C         2.039205        -0.362893        -1.198788
 C         3.324014         0.386012        -0.585998
 C         4.536999        -0.466327        -0.480863
 O         3.955565        -1.432562         0.358006
 C         2.908942        -0.359173         0.782409
 C         2.741592         1.749071        -0.350820
 O         1.401049         1.347913         0.170847
 H         0.033871        -0.818533         1.742902
 H        -0.550358        -0.686083        -0.009559
 H         0.610832        -1.934169         0.500300
 H         2.166789        -1.384008        -1.477877
 H         1.539052         0.251055        -1.907488
 H         5.116093        -0.937754        -1.338370
 H         5.278854         0.172828         0.073546
 H         3.224602         0.016893         1.791753
 H         3.249536         2.237738         0.517346
 H         2.642529         2.368099        -1.203234
