19
Iteration:  1047charge 0 multiplicity 1
 C         0.218232        -0.837158         0.645084
 C         1.548566        -0.201040         0.157447
 C         2.077547         0.012037        -1.288157
 C         3.360699         0.496892        -0.587408
 C         4.569401        -0.506794        -0.760979
 O         3.750099        -1.503101        -0.026973
 C         2.888631        -0.527275         0.570779
 C         2.796587         1.761326         0.146439
 O         1.574733         1.154570         0.677773
 H         0.203009        -1.774857         1.180635
 H        -0.343090        -0.146346         1.267665
 H        -0.367162        -0.994543        -0.246205
 H         2.344698        -0.896579        -1.796164
 H         1.319852         0.611159        -1.854385
 H         4.727951        -0.805500        -1.860829
 H         5.465191        -0.148523        -0.178116
 H         3.061451        -0.219415         1.647232
 H         3.440639         2.220714         0.964436
 H         2.591059         2.540981        -0.563668
