19
Iteration:  4605
 C         0.092387        -0.586657         0.504662
 C         1.486822        -0.082562         0.272029
 C         2.005936         0.950812        -0.692880
 C         3.345454         0.497907        -0.272749
 C         4.184946         0.088500        -1.364154
 O         3.340961        -1.098572        -1.587213
 C         2.812804        -0.910293        -0.146125
 C         3.397273         0.793035         1.265302
 O         2.070128         0.259959         1.619022
 H        -0.460123        -0.691836        -0.351620
 H         0.062850        -1.527679         0.958171
 H        -0.499015         0.058144         1.168663
 H         1.718276         0.873811        -1.853522
 H         1.620871         1.992363        -0.520563
 H         4.077685         0.768386        -2.272763
 H         5.290197        -0.149915        -1.024585
 H         3.270829        -1.663027         0.514737
 H         4.185669         0.139016         1.780283
 H         3.404422         1.780412         1.850039
