19
Iteration:  4271charge 0 multiplicity 1
 C         0.114482        -0.725384         0.399097
 C         1.512095        -0.187866         0.291548
 C         1.993507         1.013629        -0.548163
 C         3.330258         0.472736        -0.209248
 C         4.250985         0.080952        -1.350028
 O         3.215801        -1.055345        -1.597294
 C         2.723425        -0.917119        -0.214609
 C         3.467862         0.846522         1.278791
 O         2.078688         0.375354         1.589790
 H         0.057707        -1.506717        -0.368935
 H         0.087388        -1.123901         1.344623
 H        -0.543523        -0.012855         0.140731
 H         1.753719         0.975161        -1.750968
 H         1.793565         2.134458        -0.210608
 H         4.484400         0.680215        -2.193191
 H         5.180287        -0.310801        -0.947171
 H         3.171147        -2.016504         0.403950
 H         4.134315         0.319675         1.891377
 H         3.605203         1.916307         1.594234
