19
Iteration:  2585
 C         0.221670        -0.773491         0.535198
 C         1.501242        -0.066973         0.193152
 C         2.020767         0.789011        -0.975426
 C         3.411586         0.549725        -0.292846
 C         4.312575        -0.272970        -1.214667
 O         3.430996        -1.456755        -1.118212
 C         2.850631        -0.912193         0.125319
 C         3.089261         1.435358         0.938737
 O         1.902965         0.646178         1.390643
 H         0.356914        -1.373812         1.488454
 H        -0.543370        -0.063295         0.677104
 H        -0.002114        -1.517818        -0.212215
 H         1.932952         0.216165        -1.866627
 H         1.776201         1.860928        -1.130074
 H         4.500457        -0.050047        -2.278290
 H         5.282359        -0.327256        -0.602252
 H         3.039562        -1.461404         0.957519
 H         3.775556         1.469763         1.720719
 H         2.798998         2.408535         0.732904
