19
Iteration:  1392
 C         0.123157        -0.904971         0.607570
 C         1.437873        -0.113303         0.205101
 C         1.982803         0.226126        -1.252339
 C         3.332537         0.507453        -0.428711
 C         4.512618        -0.394805        -0.880066
 O         3.832453        -1.597344        -0.346777
 C         2.867963        -0.663959         0.456087
 C         2.986193         1.665982         0.333516
 O         1.648535         1.135783         0.893535
 H        -0.268522        -1.161158        -0.341555
 H        -0.000796        -1.660004         1.375220
 H        -0.523302        -0.073655         0.937021
 H         2.001438        -0.605951        -1.883358
 H         1.468800         1.099507        -1.836271
 H         4.740094        -0.510529        -1.919727
 H         5.418809        -0.108857        -0.350633
 H         3.265486        -0.894756         1.484442
 H         3.531899         1.979478         1.140032
 H         2.911051         2.633192        -0.275260
