19
Iteration:  4824charge 0 multiplicity 1
 C         0.191905        -0.752598         0.433577
 C         1.502039        -0.136207         0.235120
 C         2.010828         1.079752        -0.623020
 C         3.358053         0.534841        -0.217986
 C         4.276448        -0.032097        -1.400616
 O         3.199869        -1.027339        -1.538498
 C         2.739242        -0.846591        -0.153175
 C         3.427271         0.829533         1.251800
 O         2.033858         0.270574         1.598282
 H        -0.283083        -1.335807        -0.378091
 H         0.215814        -1.421920         1.357913
 H        -0.647961         0.050283         0.657895
 H         1.898898         1.018813        -1.628470
 H         1.793667         2.075140        -0.327174
 H         4.334232         0.634869        -2.246394
 H         5.261682        -0.330978        -1.126242
 H         3.124349        -1.662477         0.601251
 H         4.158852         0.232322         1.843159
 H         3.483700         1.903340         1.532155
