19
Iteration:  1660
 C         0.313121        -0.831867         0.546765
 C         1.552422        -0.110192         0.246400
 C         1.911637         0.287760        -1.271107
 C         3.366000         0.569953        -0.381277
 C         4.423131        -0.390780        -0.981060
 O         3.600790        -1.531224        -0.555804
 C         2.945618        -0.696589         0.363124
 C         3.002854         1.589816         0.580378
 O         1.643609         1.042973         1.040537
 H         0.426676        -1.897169         0.483828
 H         0.025282        -0.566522         1.583828
 H        -0.521238        -0.479085        -0.139438
 H         1.925132        -0.519247        -1.920914
 H         1.397148         1.207694        -1.695680
 H         4.705244        -0.386169        -2.033552
 H         5.303334        -0.468051        -0.379897
 H         3.294044        -0.914757         1.366633
 H         3.767759         1.485058         1.272981
 H         2.740162         2.520297         0.037112
