19
Iteration:  2808
 C         0.097186        -0.647024         0.479318
 C         1.536655        -0.161133         0.292183
 C         1.768094         0.736125        -0.877889
 C         3.367967         0.432021        -0.280204
 C         4.355597        -0.136284        -1.163674
 O         3.546967        -1.373515        -1.331716
 C         2.834432        -0.959541         0.084233
 C         3.266305         1.271535         1.017899
 O         1.944775         0.699175         1.422088
 H         0.206666        -1.501832        -0.145084
 H        -0.016488        -1.063712         1.552500
 H        -0.829963        -0.130207         0.189150
 H         1.572942         0.279287        -2.026359
 H         1.451036         1.877656        -0.667361
 H         4.360895         0.464691        -2.131008
 H         5.426094        -0.291948        -0.856428
 H         3.341880        -1.442347         0.889637
 H         3.950150         1.031776         1.768689
 H         3.112492         2.311201         0.914917
