19
Iteration:   997charge 0 multiplicity 1
 C         0.134124        -0.837390         0.633133
 C         1.483754        -0.216025         0.203239
 C         1.952611        -0.086385        -1.199625
 C         3.392065         0.483655        -0.474140
 C         4.586943        -0.398481        -0.703461
 O         3.834859        -1.546760        -0.063076
 C         3.000271        -0.629038         0.577282
 C         2.875700         1.796931         0.045697
 O         1.484677         1.281700         0.561403
 H        -0.361681        -1.583871        -0.074143
 H         0.241641        -1.513610         1.575996
 H        -0.653468        -0.095016         0.881833
 H         2.168982        -0.987855        -1.748501
 H         1.667013         0.813862        -1.846524
 H         4.842468        -0.654044        -1.708260
 H         5.530508        -0.097656        -0.224405
 H         3.107841        -0.437627         1.672119
 H         3.561162         2.049260         0.924349
 H         2.830698         2.578243        -0.841954
