19
Iteration:   528
 C         0.160481        -0.797335         0.731586
 C         1.501597        -0.260158         0.136438
 C         2.190199        -0.375694        -1.295624
 C         3.345421         0.398557        -0.599116
 C         4.581204        -0.494733        -0.485335
 O         3.937289        -1.272687         0.403662
 C         2.875781        -0.299501         0.718548
 C         2.684631         1.735491        -0.399501
 O         1.491343         1.173406         0.311155
 H         0.412227        -1.459869         1.617164
 H        -0.457954        -0.028958         1.193513
 H        -0.457446        -1.315198        -0.039709
 H         2.399112        -1.442980        -1.683737
 H         1.696555        -0.019354        -2.255736
 H         4.931625        -0.964241        -1.368866
 H         5.335425        -0.027359         0.152993
 H         2.855877         0.212214         1.691937
 H         3.037442         2.415263         0.324580
 H         2.477172         2.533044        -1.179580
