19
Iteration:  4222
 C         0.173556        -0.643669         0.373238
 C         1.578423        -0.134785         0.252631
 C         2.006646         1.005788        -0.590212
 C         3.414349         0.595029        -0.219693
 C         4.187142        -0.017764        -1.446923
 O         3.189561        -1.064161        -1.519912
 C         2.836951        -0.888207        -0.146968
 C         3.319086         0.841728         1.278584
 O         2.033179         0.226486         1.632053
 H        -0.133200        -1.129782        -0.569755
 H         0.317456        -1.367686         1.271800
 H        -0.584723         0.251439         0.527499
 H         1.814252         0.829780        -1.619964
 H         1.684549         2.027439        -0.250025
 H         4.292582         0.615322        -2.400835
 H         5.217625        -0.410649        -1.169724
 H         3.197050        -1.605085         0.549247
 H         4.212548         0.383867         1.857706
 H         3.372882         1.882229         1.557371
