19
Iteration:  3532charge 0 multiplicity 1
 C         0.196745        -0.670082         0.497826
 C         1.555471        -0.121987         0.204385
 C         1.971422         1.009957        -0.725810
 C         3.341247         0.553571        -0.230592
 C         4.232678         0.076791        -1.383002
 O         3.318247        -1.194891        -1.423696
 C         2.809045        -0.853941        -0.143020
 C         3.328739         0.838228         1.248637
 O         1.994112         0.321157         1.546636
 H         0.330921        -1.511821         1.162141
 H        -0.372331         0.079084         1.270433
 H        -0.345245        -0.820786        -0.509157
 H         1.780310         0.624802        -1.713526
 H         1.521952         2.043335        -0.637137
 H         4.159082         0.465412        -2.369450
 H         5.162930        -0.337431        -1.052549
 H         3.215485        -1.547782         0.592039
 H         4.056811         0.209073         1.681498
 H         3.421430         1.958588         1.541707
