19
Iteration:  3127charge 0 multiplicity 1
 C         0.092770        -0.651873         0.581591
 C         1.468171        -0.195200         0.261105
 C         1.956420         0.836147        -0.827562
 C         3.365165         0.468081        -0.234138
 C         4.323903        -0.094099        -1.240345
 O         3.447798        -1.246380        -1.417381
 C         2.842018        -0.953035        -0.057849
 C         3.273607         1.142158         1.082962
 O         1.963953         0.565318         1.504499
 H        -0.026204        -1.721504         0.224097
 H        -0.131900        -0.540458         1.645834
 H        -0.618344        -0.147287        -0.160601
 H         1.751324         0.541563        -1.894051
 H         1.694905         1.832098        -0.770510
 H         4.343975         0.401526        -2.201155
 H         5.337564        -0.270198        -1.007889
 H         3.171154        -1.727053         0.655113
 H         4.063656         0.740512         1.803844
 H         3.117534         2.335720         1.080032
