19
Iteration:  2865
 C         0.225575        -0.789610         0.472639
 C         1.505249        -0.132052         0.208967
 C         1.877007         0.886001        -0.866836
 C         3.390503         0.497628        -0.259619
 C         4.324623        -0.169852        -1.276201
 O         3.456109        -1.362306        -1.189390
 C         2.765170        -0.915833        -0.012755
 C         3.248964         1.233210         1.044233
 O         1.932589         0.671893         1.472149
 H         0.447241        -1.754252         0.932498
 H        -0.386152        -0.347498         1.246814
 H        -0.333013        -0.890208        -0.464636
 H         1.826821         0.390898        -1.937974
 H         1.548884         2.058533        -1.015270
 H         4.336360         0.170599        -2.348538
 H         5.360734        -0.409711        -0.868477
 H         2.994337        -1.592317         0.862896
 H         3.918160         0.989435         1.864971
 H         3.177049         2.294910         1.039550
