19
Iteration:  4228charge 0 multiplicity 1
 C         0.179069        -0.648889         0.359726
 C         1.587168        -0.114701         0.245607
 C         2.048036         0.973442        -0.568616
 C         3.419505         0.578325        -0.196061
 C         4.200789        -0.004883        -1.482096
 O         3.139642        -1.062488        -1.519258
 C         2.838051        -0.861253        -0.176257
 C         3.304443         0.891555         1.336006
 O         2.055946         0.207467         1.640899
 H        -0.139954        -1.299296        -0.507337
 H        -0.008379        -1.289435         1.215084
 H        -0.572864         0.077638         0.457607
 H         1.923234         0.885381        -1.721317
 H         1.644487         1.951158        -0.349531
 H         4.354820         0.444136        -2.460131
 H         5.114059        -0.466506        -1.151779
 H         3.308721        -1.643368         0.593098
 H         4.143972         0.409641         1.758849
 H         3.328119         2.021794         1.557642
