19
Iteration:  4828
 C         0.145230        -0.777367         0.443230
 C         1.492627        -0.131506         0.246630
 C         2.002996         1.110834        -0.609517
 C         3.390068         0.560629        -0.220250
 C         4.252357        -0.034738        -1.415933
 O         3.198574        -1.054102        -1.543255
 C         2.751073        -0.849735        -0.147689
 C         3.402946         0.815688         1.273324
 O         2.059356         0.283806         1.568516
 H        -0.151710        -1.367870        -0.420404
 H         0.313387        -1.333925         1.305849
 H        -0.528576        -0.033197         0.561248
 H         1.931209         0.945227        -1.736220
 H         1.804920         2.146095        -0.174551
 H         4.410296         0.677198        -2.230404
 H         5.231965        -0.373050        -1.063951
 H         3.106922        -1.570633         0.633746
 H         4.147462         0.211473         1.864453
 H         3.506201         1.872412         1.568768
