19
Iteration:  3931
 C         0.197208        -0.714530         0.370234
 C         1.569918        -0.155720         0.361402
 C         1.902152         1.052268        -0.642921
 C         3.382713         0.596711        -0.205191
 C         4.241343        -0.043993        -1.384313
 O         3.179497        -1.069647        -1.534543
 C         2.799917        -0.965482        -0.197205
 C         3.450392         0.916870         1.288400
 O         2.040228         0.293800         1.568786
 H        -0.255865        -0.634456        -0.797019
 H         0.003387        -1.745324         0.788311
 H        -0.411917         0.072364         0.990633
 H         1.594912         0.829964        -1.523066
 H         1.650342         1.932639        -0.234830
 H         4.352614         0.672377        -2.219553
 H         5.267892        -0.409710        -0.999253
 H         3.114025        -1.729086         0.492222
 H         4.257043         0.376396         1.768202
 H         3.538874         1.988211         1.654752
