19
Iteration:  2323
 C         0.114362        -0.784009         0.590901
 C         1.474512        -0.143707         0.122290
 C         1.989178         0.715113        -1.007249
 C         3.373212         0.514332        -0.296694
 C         4.397229        -0.279700        -1.241212
 O         3.602242        -1.490040        -0.974686
 C         2.851708        -0.887209         0.154281
 C         3.152880         1.446665         0.902772
 O         1.820029         0.782839         1.308719
 H        -0.614200         0.011371         0.695498
 H        -0.278623        -1.516254        -0.033862
 H         0.254839        -1.119002         1.607480
 H         1.846796         0.429945        -2.083229
 H         1.749489         1.801537        -0.826358
 H         4.240777         0.034829        -2.240273
 H         5.420727        -0.495714        -1.052090
 H         2.958272        -1.426945         1.185119
 H         3.761135         1.346973         1.703821
 H         2.827753         2.443861         0.558733
