19
Iteration:  4821
 C         0.209464        -0.726616         0.433452
 C         1.512735        -0.129106         0.226731
 C         2.012555         1.050028        -0.621085
 C         3.351381         0.509072        -0.208757
 C         4.270826        -0.016479        -1.374856
 O         3.205244        -1.012213        -1.539229
 C         2.745234        -0.861578        -0.159506
 C         3.446422         0.842407         1.241059
 O         2.015022         0.263303         1.621473
 H        -0.322620        -1.303591        -0.361082
 H         0.136174        -1.474570         1.360626
 H        -0.653743         0.057641         0.740777
 H         1.801905         1.035428        -1.797616
 H         1.738702         2.082753        -0.411266
 H         4.260410         0.624358        -2.341983
 H         5.401894        -0.409619        -1.123099
 H         3.089505        -1.649828         0.435611
 H         4.148184         0.281995         1.784772
 H         3.443005         1.900435         1.507608
