19
Iteration:  3245charge 0 multiplicity 1
 C         0.119851        -0.621002         0.549391
 C         1.568501        -0.205618         0.322178
 C         1.929114         0.772921        -0.813780
 C         3.379676         0.477188        -0.244347
 C         4.340378        -0.060377        -1.303964
 O         3.362405        -1.150935        -1.471295
 C         2.854416        -0.958838        -0.100050
 C         3.273332         1.038857         1.192201
 O         1.935124         0.561211         1.533509
 H        -0.240696        -0.477231         1.544526
 H        -0.495693        -0.022373        -0.101372
 H        -0.040739        -1.614763         0.354675
 H         1.836032         0.271064        -1.921038
 H         1.515306         1.822521        -0.832643
 H         4.394160         0.506530        -2.302190
 H         5.426447        -0.276379        -1.048268
 H         3.305980        -1.702021         0.560138
 H         3.943236         0.751862         1.933741
 H         3.166176         2.035298         1.155051
