19
Iteration:  2910
 C         0.200532        -0.727774         0.411084
 C         1.577500        -0.102569         0.270244
 C         1.881559         0.699321        -0.863479
 C         3.347173         0.607293        -0.320679
 C         4.347341        -0.169903        -1.282731
 O         3.373808        -1.304347        -1.231731
 C         2.867302        -0.868909         0.019221
 C         3.222351         1.179740         1.105026
 O         1.950283         0.600607         1.499242
 H        -0.084347        -0.672687         1.464751
 H        -0.543515        -0.070625         0.058238
 H         0.053956        -1.616615        -0.185570
 H         1.655077         0.186810        -1.798069
 H         1.297742         1.815054        -0.875360
 H         4.361612         0.267637        -2.298948
 H         5.370547        -0.497345        -0.882343
 H         3.230869        -1.512689         0.901618
 H         4.116531         0.886608         1.683216
 H         3.186423         2.243955         1.149621
