19
Iteration:  2295charge 0 multiplicity 1
 C         0.280388        -0.767850         0.493473
 C         1.556393        -0.080061         0.213081
 C         1.959115         0.573356        -1.085223
 C         3.316579         0.596658        -0.388143
 C         4.328605        -0.282214        -1.152129
 O         3.431871        -1.450952        -0.964633
 C         2.895414        -0.802143         0.197104
 C         3.129527         1.390525         0.923271
 O         1.844445         0.764267         1.332685
 H        -0.382252        -0.107131         1.187673
 H        -0.262552        -0.868211        -0.504059
 H         0.461161        -1.764300         0.970621
 H         1.896467         0.043686        -1.999401
 H         1.549261         1.576632        -1.242032
 H         4.518492        -0.064423        -2.251769
 H         5.277053        -0.581170        -0.579130
 H         3.169722        -1.162001         1.142791
 H         3.961386         1.073511         1.726311
 H         2.949217         2.480853         0.805731
