19
Iteration:  2959
 C         0.106766        -0.666982         0.530449
 C         1.476096        -0.185654         0.217479
 C         1.887196         0.844357        -0.776124
 C         3.330433         0.503274        -0.292840
 C         4.337590        -0.122676        -1.309249
 O         3.562916        -1.340939        -1.326290
 C         2.763139        -0.996636         0.068837
 C         3.264818         1.208769         1.087805
 O         1.953723         0.637103         1.411889
 H        -0.347934        -0.137973         1.338609
 H        -0.619239        -0.775734        -0.336037
 H         0.314317        -1.702042         0.775883
 H         1.683670         0.574393        -1.849006
 H         1.594382         1.748288        -0.608431
 H         4.509338         0.343070        -2.288104
 H         5.261146        -0.245966        -0.801347
 H         3.231941        -1.677148         0.768938
 H         4.021996         0.915341         1.851541
 H         3.248228         2.379627         1.016336
