19
Iteration:  4350charge 0 multiplicity 1
 C         0.047925        -0.638383         0.404656
 C         1.539991        -0.186864         0.331503
 C         1.930382         0.942582        -0.554543
 C         3.447257         0.490367        -0.224830
 C         4.309283         0.047491        -1.378210
 O         3.252428        -1.066475        -1.605673
 C         2.767295        -0.946119        -0.184666
 C         3.380159         0.943280         1.258117
 O         2.101154         0.293067         1.623418
 H        -0.419739        -0.281185        -0.491250
 H        -0.237901        -1.683035         0.516668
 H        -0.326279        -0.135903         1.213292
 H         1.432725         0.919939        -1.712898
 H         1.568855         1.931317        -0.258547
 H         4.520364         0.709294        -2.255658
 H         5.205337        -0.380309        -0.967843
 H         3.266834        -1.950547         0.286144
 H         4.200361         0.535126         1.790268
 H         3.221994         2.052363         1.327793
