19
Iteration:   870
 C         0.243378        -0.861331         0.686419
 C         1.473914        -0.174209         0.113094
 C         2.051024        -0.045382        -1.404617
 C         3.311787         0.435049        -0.511608
 C         4.545426        -0.478404        -0.610487
 O         3.903610        -1.583606         0.146477
 C         2.889018        -0.466454         0.639083
 C         2.773388         1.805018        -0.083321
 O         1.536730         1.228755         0.563795
 H         0.551790        -1.573073         1.431397
 H        -0.302113        -0.076686         1.178317
 H        -0.446860        -1.225815        -0.048044
 H         2.092404        -1.061407        -1.896735
 H         1.585017         0.630821        -2.112617
 H         4.783157        -0.907631        -1.622266
 H         5.429172        -0.007355        -0.128929
 H         3.134668        -0.297987         1.693885
 H         3.249508         2.367430         0.636937
 H         2.579673         2.444877        -0.864219
