19
Iteration:   677charge 0 multiplicity 1
 C         0.238793        -0.794419         0.639135
 C         1.498293        -0.176790         0.185917
 C         2.099641        -0.350478        -1.279545
 C         3.303507         0.414103        -0.574157
 C         4.556921        -0.449909        -0.549699
 O         3.912969        -1.382847         0.240220
 C         2.887452        -0.425572         0.732957
 C         2.755145         1.749826        -0.210528
 O         1.447243         1.256245         0.384582
 H         0.194686        -1.850918         0.332445
 H         0.101157        -0.753664         1.681609
 H        -0.578127        -0.177601         0.171267
 H         2.408684        -1.392216        -1.269139
 H         1.686666         0.033100        -2.145423
 H         4.872733        -0.822552        -1.544721
 H         5.459725        -0.020485        -0.080988
 H         3.251046         0.021924         1.643117
 H         3.376988         2.258479         0.496438
 H         2.537316         2.323586        -1.036694
