19
Iteration:  1280
 C         0.126509        -0.791002         0.575329
 C         1.509700        -0.235945         0.206622
 C         1.919755         0.072973        -1.214613
 C         3.335052         0.482241        -0.523409
 C         4.574384        -0.349111        -0.765913
 O         3.794241        -1.570606        -0.293865
 C         2.923578        -0.545339         0.487276
 C         2.889223         1.621678         0.330125
 O         1.655813         1.175075         0.764908
 H         0.070535        -0.918957         1.623452
 H        -0.527907         0.041988         0.346752
 H        -0.052423        -1.614634        -0.118181
 H         1.891322        -0.969453        -1.749877
 H         1.371525         0.792821        -1.781048
 H         4.787087        -0.595334        -1.811771
 H         5.360702        -0.215797        -0.084101
 H         3.294601        -0.574877         1.526003
 H         3.653218         1.853810         1.031052
 H         2.769572         2.648322        -0.097054
