19
Iteration:   308charge 0 multiplicity 1
 C         0.230373        -0.833402         0.652242
 C         1.500218        -0.139468         0.197224
 C         2.094647        -0.600570        -1.123840
 C         3.314172         0.283707        -0.646753
 C         4.603205        -0.448211        -0.454096
 O         4.017649        -1.262243         0.573446
 C         2.933182        -0.180385         0.823859
 C         2.673278         1.716689        -0.497353
 O         1.377272         1.265255         0.039599
 H         0.467649        -1.899285         0.874141
 H        -0.292949        -0.403765         1.512180
 H        -0.431613        -0.772256        -0.210240
 H         2.328594        -1.650281        -1.201067
 H         1.600064        -0.172552        -1.996839
 H         5.109673        -0.950117        -1.234149
 H         5.310478         0.289537         0.014307
 H         3.108546         0.423040         1.670707
 H         3.138853         2.299311         0.266498
 H         2.309506         2.405284        -1.346851
