19
Iteration:  4782
 C         0.009284        -0.577341         0.508566
 C         1.495343        -0.236515         0.292363
 C         1.945346         0.942454        -0.623760
 C         3.410132         0.484560        -0.197817
 C         4.281608         0.055984        -1.377935
 O         3.338395        -1.047630        -1.647283
 C         2.828752        -0.935321        -0.218195
 C         3.384964         0.912289         1.238955
 O         2.032631         0.267231         1.644848
 H        -0.480452        -0.344908        -0.401684
 H        -0.114807        -1.518777         0.865967
 H        -0.284050         0.170224         1.150450
 H         1.690149         0.720613        -1.585693
 H         1.640393         1.908237        -0.184283
 H         4.364856         0.617210        -2.303800
 H         5.230978        -0.325883        -1.118361
 H         3.290457        -1.800052         0.437264
 H         4.280349         0.476809         1.809325
 H         3.334546         1.998947         1.454810
