19
Iteration:  2923
 C         0.161778        -0.639759         0.470374
 C         1.519908        -0.159378         0.262121
 C         1.976291         0.739656        -0.941211
 C         3.371482         0.583923        -0.285900
 C         4.213455        -0.132096        -1.314717
 O         3.417559        -1.349256        -1.294216
 C         2.906305        -0.864493         0.073184
 C         3.189088         1.236539         1.123370
 O         1.961599         0.546749         1.489122
 H        -0.103806        -0.682629         1.541486
 H        -0.503310        -0.208075        -0.158515
 H         0.262735        -1.681337         0.314892
 H         1.956667         0.204692        -1.813431
 H         1.546590         1.818895        -1.022673
 H         4.417311         0.240484        -2.310610
 H         5.209428        -0.355639        -0.815196
 H         3.262515        -1.591272         0.913557
 H         3.930101         0.773444         1.831519
 H         3.049131         2.325329         1.310266
