19
Iteration:   917
 C         0.184698        -0.777153         0.569701
 C         1.551703        -0.211766         0.260729
 C         1.975215        -0.174972        -1.229683
 C         3.268539         0.434886        -0.463347
 C         4.537492        -0.408226        -0.756101
 O         3.868498        -1.537449         0.028140
 C         2.984449        -0.582440         0.695964
 C         2.873846         1.786601         0.032234
 O         1.476633         1.308219         0.475572
 H        -0.357020        -0.258292         1.373350
 H        -0.431754        -1.023606        -0.291538
 H         0.465202        -1.834254         0.872170
 H         2.293518        -1.035215        -1.849043
 H         1.321257         0.464289        -1.796661
 H         4.968379        -0.564035        -1.770440
 H         5.282946        -0.101478        -0.034000
 H         3.267083        -0.327234         1.766843
 H         3.560602         2.189830         0.753149
 H         2.748811         2.545074        -0.824972
