19
Iteration:  3075
 C         0.186054        -0.669377         0.452053
 C         1.521772        -0.169415         0.179458
 C         1.879845         0.826735        -0.921645
 C         3.315150         0.593005        -0.332701
 C         4.241738        -0.060299        -1.290875
 O         3.374328        -1.293691        -1.260391
 C         2.869201        -0.867693         0.097995
 C         3.303177         1.071602         1.104671
 O         2.020277         0.508422         1.515805
 H        -0.319477        -0.951655        -0.581622
 H         0.302458        -1.548670         1.110109
 H        -0.419112         0.019218         1.223098
 H         1.818290         0.489601        -1.900069
 H         1.430167         1.885688        -0.839810
 H         4.524788         0.320924        -2.277238
 H         5.177328        -0.348712        -0.689520
 H         3.090318        -1.605772         0.917862
 H         4.067453         0.629646         1.786599
 H         3.364600         2.154660         1.252333
