19
Iteration:  2480
 C         0.073017        -0.768183         0.477905
 C         1.486024        -0.118777         0.253663
 C         1.888917         0.758875        -0.913396
 C         3.373258         0.473984        -0.322039
 C         4.432389        -0.284568        -1.229096
 O         3.537279        -1.466296        -1.087581
 C         2.881053        -0.865560         0.130428
 C         3.160327         1.428060         0.870996
 O         1.924242         0.731653         1.393951
 H         0.044348        -1.870338         0.253318
 H        -0.289862        -0.708710         1.598504
 H        -0.765416        -0.198442        -0.004161
 H         1.709246         0.245522        -1.883550
 H         1.481777         1.787573        -0.906243
 H         4.713027         0.186650        -2.180588
 H         5.314283        -0.407982        -0.604373
 H         3.283680        -1.419303         1.083035
 H         3.937365         1.412896         1.657448
 H         2.807772         2.413737         0.423745
