19
Iteration:  4664
 C         0.120151        -0.693794         0.460823
 C         1.563888        -0.091501         0.308161
 C         1.997379         1.065689        -0.594896
 C         3.424713         0.495941        -0.212701
 C         4.247725         0.002544        -1.374239
 O         3.205402        -1.033304        -1.565808
 C         2.759920        -0.917203        -0.201761
 C         3.402780         0.894542         1.212474
 O         2.035450         0.199961         1.606750
 H        -0.075963        -1.434103        -0.369915
 H        -0.022627        -1.123238         1.462543
 H        -0.545164         0.091772         0.225538
 H         1.975960         0.757582        -1.567320
 H         1.661866         2.114824        -0.238494
 H         4.303971         0.620868        -2.248850
 H         5.256794        -0.339976        -1.118034
 H         3.068578        -1.671946         0.373414
 H         4.212714         0.501085         1.799586
 H         3.262568         1.913898         1.406756
