19
Iteration:  1629
 C         0.099257        -0.942741         0.517874
 C         1.490463        -0.219011         0.308957
 C         1.936105         0.305948        -1.108002
 C         3.357914         0.508390        -0.332231
 C         4.438439        -0.299867        -1.028090
 O         3.713208        -1.572603        -0.561051
 C         2.933595        -0.807779         0.384942
 C         3.028179         1.638291         0.504735
 O         1.726182         1.240485         0.940577
 H        -0.029404        -1.539672        -0.388598
 H         0.025818        -1.513397         1.490069
 H        -0.744194        -0.156548         0.572751
 H         1.976787        -0.405930        -1.862166
 H         1.428536         1.217239        -1.475782
 H         4.656566        -0.327111        -2.106899
 H         5.322927        -0.342031        -0.421209
 H         3.223271        -1.132010         1.342780
 H         3.908786         1.865145         1.342178
 H         2.949883         2.636739         0.024394
