19
Iteration:   927charge 0 multiplicity 1
 C         0.169751        -0.844463         0.560678
 C         1.491019        -0.217552         0.265623
 C         2.036321        -0.104018        -1.191963
 C         3.277090         0.386065        -0.524398
 C         4.538685        -0.358431        -0.714042
 O         3.895074        -1.513823         0.026601
 C         2.977011        -0.604834         0.664788
 C         2.876094         1.725674        -0.006006
 O         1.482951         1.355894         0.499023
 H        -0.470750        -0.091246         1.016498
 H        -0.332188        -1.163637        -0.314563
 H         0.245291        -1.603309         1.362049
 H         1.963585        -1.099738        -1.657756
 H         1.461699         0.646134        -1.641144
 H         4.833220        -0.723163        -1.739076
 H         5.449763        -0.012285        -0.216998
 H         3.363710        -0.529806         1.719276
 H         3.458418         2.041246         0.755080
 H         2.742952         2.465867        -0.779110
