19
Iteration:  3495
 C         0.139294        -0.811533         0.386376
 C         1.447851        -0.178546         0.298435
 C         1.970716         1.043195        -0.606340
 C         3.344044         0.495803        -0.255261
 C         4.333845        -0.057055        -1.303128
 O         3.256475        -1.156095        -1.562413
 C         2.765764        -0.942389        -0.161990
 C         3.395625         1.023236         1.163698
 O         2.059194         0.492470         1.656893
 H         0.191867        -1.914306         0.133472
 H        -0.423614        -0.526177         1.436646
 H        -0.583868        -0.474781        -0.347525
 H         1.624607         0.752891        -1.614358
 H         1.761632         2.034096        -0.358562
 H         4.704823         0.416896        -2.248821
 H         5.233096        -0.432280        -0.813909
 H         3.267437        -1.617610         0.556853
 H         4.158299         0.660516         1.823662
 H         3.399819         2.024219         1.214378
