19
Iteration:  3110charge 0 multiplicity 1
 C         0.025766        -0.688837         0.568918
 C         1.451619        -0.111312         0.241391
 C         1.900085         0.903556        -0.784375
 C         3.341492         0.493720        -0.311279
 C         4.375146        -0.096268        -1.327042
 O         3.531871        -1.354331        -1.408204
 C         2.828743        -0.927837        -0.044871
 C         3.265761         1.157979         1.104976
 O         1.996531         0.545881         1.523547
 H        -0.242929        -1.683053         0.103884
 H         0.131347        -1.017293         1.619278
 H        -0.848669        -0.016267         0.285128
 H         1.727884         0.599019        -1.935050
 H         1.534359         2.044088        -0.492309
 H         4.678954         0.447798        -2.266807
 H         5.291995        -0.480811        -0.722105
 H         3.085862        -1.607563         0.825981
 H         3.907073         0.885564         1.933577
 H         3.176252         2.164631         0.981748
