19
Iteration:  4634charge 0 multiplicity 1
 C         0.058774        -0.631979         0.490946
 C         1.514302        -0.126964         0.235513
 C         1.844323         1.059155        -0.547899
 C         3.379284         0.507810        -0.267698
 C         4.239192         0.035396        -1.376279
 O         3.402450        -1.149360        -1.566804
 C         2.750727        -0.854200        -0.216915
 C         3.424359         0.768693         1.294501
 O         2.118067         0.304787         1.566169
 H        -0.286779        -1.197285        -0.482125
 H        -0.243609        -1.269150         1.456466
 H        -0.541740         0.353313         0.625148
 H         1.790891         0.978817        -1.624014
 H         1.348040         1.945744        -0.195241
 H         4.119613         0.658989        -2.285885
 H         5.271816        -0.124755        -1.226203
 H         3.230641        -1.702391         0.510027
 H         4.164098         0.114031         1.744170
 H         3.448014         1.831543         1.692347
