19
Iteration:  4976
 C         0.157555        -0.701713         0.430587
 C         1.530385        -0.111137         0.307876
 C         1.969772         1.026345        -0.618978
 C         3.382537         0.569738        -0.161975
 C         4.199344         0.013551        -1.353992
 O         3.229877        -1.110670        -1.580354
 C         2.794150        -0.881823        -0.147868
 C         3.468983         0.791330         1.240451
 O         2.017311         0.363327         1.515417
 H        -0.381567        -0.847789        -0.504593
 H         0.215471        -1.683648         0.864168
 H        -0.419740        -0.238486         1.254291
 H         1.725071         0.849654        -1.692226
 H         1.702861         2.061167        -0.288165
 H         4.247577         0.589954        -2.276133
 H         5.215716        -0.399658        -0.951836
 H         3.254665        -1.642719         0.497925
 H         4.121055         0.166270         1.771385
 H         3.481825         1.805873         1.560429
