19
Iteration:  1806charge 0 multiplicity 1
 C         0.167173        -0.854701         0.560872
 C         1.497151        -0.122862         0.207722
 C         1.889137         0.358018        -1.184677
 C         3.298902         0.513393        -0.448618
 C         4.436356        -0.380728        -0.983921
 O         3.613876        -1.465916        -0.671799
 C         2.952275        -0.715355         0.376726
 C         3.119987         1.525618         0.664273
 O         1.728885         1.031444         1.046857
 H        -0.809271        -0.223712         0.459000
 H         0.014432        -1.793241        -0.021718
 H         0.428011        -1.153529         1.590449
 H         2.106482        -0.409790        -1.974677
 H         1.304549         1.161715        -1.536289
 H         4.733378        -0.225580        -2.022959
 H         5.368120        -0.348602        -0.469992
 H         3.311780        -0.866824         1.364938
 H         3.896969         1.478436         1.505520
 H         2.980452         2.638177         0.359167
