19
Iteration:  4056charge 0 multiplicity 1
 C         0.156724        -0.680616         0.507361
 C         1.485535        -0.141692         0.235491
 C         2.045123         1.051755        -0.624177
 C         3.385597         0.568929        -0.177033
 C         4.195262         0.021056        -1.384728
 O         3.277486        -1.046214        -1.618196
 C         2.797554        -0.923576        -0.237833
 C         3.434993         0.842577         1.312297
 O         1.997526         0.252879         1.597435
 H        -0.109476        -1.500586        -0.188719
 H         0.060045        -1.048734         1.569246
 H        -0.680779         0.012143         0.300949
 H         1.809860         1.000338        -1.778316
 H         1.632401         1.961363        -0.292398
 H         4.318377         0.566609        -2.398370
 H         5.125551        -0.376814        -0.990534
 H         3.055131        -1.769331         0.581536
 H         4.251344         0.312421         1.859572
 H         3.281906         1.850232         1.642258
