19
Iteration:   581charge 0 multiplicity 1
 C         0.231218        -0.907201         0.663468
 C         1.514451        -0.232038         0.245111
 C         2.084066        -0.380561        -1.224632
 C         3.329468         0.386058        -0.568383
 C         4.646111        -0.430009        -0.517895
 O         3.809200        -1.416970         0.322545
 C         2.961361        -0.248060         0.760730
 C         2.747335         1.787876        -0.313232
 O         1.432816         1.287542         0.196176
 H        -0.303003        -0.270116         1.415516
 H        -0.458596        -1.115544        -0.098920
 H         0.496242        -1.849505         1.195801
 H         2.406067        -1.459907        -1.477114
 H         1.516934         0.282817        -1.920762
 H         4.927832        -0.873716        -1.487626
 H         5.564587        -0.101742         0.037225
 H         3.182636         0.189442         1.742808
 H         3.359405         2.343822         0.513334
 H         2.418462         2.408096        -1.193065
