19
Iteration:  3125
 C         0.068621        -0.668779         0.573085
 C         1.458608        -0.179659         0.248967
 C         1.958021         0.849229        -0.827291
 C         3.361343         0.463360        -0.241529
 C         4.332773        -0.112855        -1.254036
 O         3.473332        -1.245292        -1.428119
 C         2.830788        -0.977453        -0.039751
 C         3.273816         1.155992         1.092088
 O         1.962511         0.567859         1.522518
 H        -0.019862        -1.660010         0.232878
 H        -0.117068        -0.532956         1.634938
 H        -0.640639        -0.152645         0.001118
 H         1.678879         0.565110        -2.014093
 H         1.662218         1.929514        -0.698482
 H         4.363305         0.392999        -2.247014
 H         5.374669        -0.278903        -0.986770
 H         3.261704        -1.694626         0.671318
 H         4.087373         0.803191         1.739176
 H         3.124479         2.281882         1.095652
