19
Iteration:  4703
 C         0.203877        -0.730347         0.402427
 C         1.550587        -0.218035         0.298145
 C         2.010817         1.023728        -0.603414
 C         3.405479         0.544492        -0.118238
 C         4.218636        -0.021425        -1.364454
 O         3.164248        -1.023857        -1.640872
 C         2.767336        -0.920956        -0.228869
 C         3.428931         0.862385         1.278264
 O         2.015901         0.393158         1.626091
 H        -0.063998        -1.312479        -0.463752
 H         0.045856        -1.410260         1.255392
 H        -0.511344         0.113627         0.648141
 H         1.753533         0.995683        -1.691381
 H         1.634204         1.995011        -0.319557
 H         4.390047         0.560707        -2.294186
 H         5.179415        -0.518615        -1.076934
 H         3.133334        -1.857792         0.455481
 H         4.180529         0.239772         1.852238
 H         3.497229         1.986832         1.457803
