19
Iteration:  2084
 C         0.033920        -0.819897         0.479543
 C         1.430713        -0.119971         0.339082
 C         1.847016         0.517170        -1.017592
 C         3.332896         0.487263        -0.413940
 C         4.449707        -0.274923        -1.024706
 O         3.674948        -1.489227        -0.928230
 C         2.874132        -0.837920         0.270413
 C         3.206836         1.490105         0.705972
 O         1.842875         0.947655         1.195700
 H        -0.699613        -0.326245        -0.228059
 H         0.208300        -1.919068         0.187118
 H        -0.341832        -0.841684         1.550862
 H         1.809333        -0.051854        -2.000355
 H         1.354414         1.399442        -1.255128
 H         4.740180        -0.110169        -2.036259
 H         5.419454        -0.362443        -0.471050
 H         3.317615        -1.193352         1.161296
 H         3.926340         1.393047         1.627682
 H         3.035445         2.558021         0.680671
