19
Iteration:  3305charge 0 multiplicity 1
 C         0.170794        -0.663920         0.430168
 C         1.541913        -0.073671         0.279117
 C         1.893303         0.932887        -0.806165
 C         3.333105         0.698309        -0.335225
 C         4.220830        -0.129675        -1.325543
 O         3.364130        -1.330184        -1.366474
 C         2.856841        -0.841688        -0.069153
 C         3.353575         1.002222         1.227288
 O         1.968763         0.418185         1.548727
 H        -0.275930        -0.371915         1.428780
 H        -0.479502        -0.751004        -0.504326
 H         0.487071        -1.813045         0.554496
 H         1.801908         0.492131        -1.746313
 H         1.423380         1.919825        -0.714192
 H         4.257559         0.293374        -2.306720
 H         5.200161        -0.229520        -0.880181
 H         3.351260        -1.389962         0.765680
 H         4.274645         0.443508         1.707995
 H         3.339227         2.081093         1.528840
