19
Iteration:  2434
 C         0.144284        -0.801169         0.547471
 C         1.459253        -0.170181         0.201114
 C         1.933203         0.628910        -1.038433
 C         3.338802         0.550806        -0.319944
 C         4.372652        -0.211401        -1.200043
 O         3.482898        -1.425660        -1.017338
 C         2.863088        -0.824742         0.176778
 C         3.284837         1.304021         0.982677
 O         1.852361         0.865820         1.264449
 H        -0.210489        -1.288113        -0.387144
 H         0.379608        -1.614128         1.161508
 H        -0.576952        -0.191526         1.044103
 H         1.965202         0.161670        -2.014294
 H         1.530464         1.733486        -1.113252
 H         4.270440         0.039445        -2.231185
 H         5.378898        -0.439925        -0.932423
 H         3.173540        -1.317027         1.201335
 H         3.821577         0.890392         1.778632
 H         3.302990         2.451291         0.903398
