19
Iteration:  4160
 C         0.130949        -0.600982         0.595856
 C         1.472520        -0.158146         0.276212
 C         1.927210         1.000854        -0.685582
 C         3.360711         0.531894        -0.218975
 C         4.302752         0.058726        -1.302989
 O         3.311428        -1.105769        -1.597429
 C         2.792372        -0.894318        -0.242445
 C         3.399258         0.826007         1.277888
 O         2.036526         0.266409         1.508825
 H        -0.387787        -0.437675        -0.314770
 H         0.080999        -1.633183         0.680694
 H        -0.299267        -0.206893         1.459515
 H         1.796475         0.840948        -1.715701
 H         1.533119         2.143207        -0.553656
 H         4.484101         0.675955        -2.115344
 H         5.219488        -0.391459        -0.949207
 H         3.212434        -1.725017         0.518198
 H         3.994852         0.280620         1.979497
 H         3.322670         1.886617         1.575631
