19
Iteration:  2289charge 0 multiplicity 1
 C         0.268918        -0.781083         0.452475
 C         1.528561        -0.094861         0.261655
 C         1.900592         0.562155        -1.051685
 C         3.335938         0.576299        -0.444990
 C         4.382961        -0.297496        -1.120993
 O         3.428620        -1.429940        -0.988876
 C         2.893778        -0.800667         0.213894
 C         3.164951         1.375925         0.925341
 O         1.819195         0.812131         1.350255
 H        -0.289745        -0.206686         1.096565
 H        -0.296868        -0.809197        -0.456657
 H         0.438315        -1.784393         0.789307
 H         1.767286        -0.099987        -2.018989
 H         1.562722         1.596426        -1.242436
 H         4.556343        -0.048306        -2.153307
 H         5.314824        -0.451167        -0.649002
 H         3.269667        -1.346012         1.182999
 H         4.005171         1.265087         1.517644
 H         3.147300         2.466998         0.888257
