19
Iteration:  3334charge 0 multiplicity 1
 C         0.110371        -0.805275         0.387280
 C         1.488267        -0.167663         0.290708
 C         1.970691         0.889477        -0.710307
 C         3.387712         0.492185        -0.249131
 C         4.299304        -0.044097        -1.324667
 O         3.276511        -1.188155        -1.412693
 C         2.766253        -0.929880        -0.003808
 C         3.388323         1.062624         1.172917
 O         2.026831         0.582090         1.487159
 H        -0.570592        -0.201530         0.913225
 H        -0.150206        -1.187439        -0.500096
 H         0.311894        -1.590796         1.086795
 H         1.750578         0.644710        -1.891235
 H         1.669493         1.903687        -0.334202
 H         4.312608         0.566125        -2.284116
 H         5.410427        -0.283855        -1.135772
 H         3.086029        -1.696519         0.706710
 H         4.149249         0.615332         1.738773
 H         3.396057         2.137829         1.308493
