19
Iteration:  3005charge 0 multiplicity 1
 C         0.144776        -0.754295         0.519194
 C         1.498329        -0.110951         0.198488
 C         1.903810         0.842234        -0.934001
 C         3.392198         0.574627        -0.243613
 C         4.262715        -0.184936        -1.269621
 O         3.384717        -1.242457        -1.293022
 C         2.865193        -0.884847         0.061117
 C         3.311967         1.181910         1.115790
 O         1.989888         0.527246         1.452895
 H        -0.599993        -0.025175         0.141824
 H        -0.024515        -1.735125        -0.115486
 H        -0.061421        -1.066255         1.586612
 H         1.871398         0.464542        -1.982206
 H         1.483821         1.699088        -0.883269
 H         4.426820         0.134663        -2.318478
 H         5.190432        -0.405637        -0.793099
 H         3.083129        -1.582061         0.873796
 H         4.121960         0.846907         1.797554
 H         3.123269         2.326625         1.323565
