19
Iteration:   671charge 0 multiplicity 1
 C         0.225210        -0.794499         0.591316
 C         1.531641        -0.197536         0.183987
 C         2.028712        -0.410897        -1.230334
 C         3.278278         0.375415        -0.566208
 C         4.579455        -0.371113        -0.578351
 O         3.888365        -1.383143         0.271853
 C         2.935794        -0.393827         0.682309
 C         2.777693         1.704787        -0.159330
 O         1.466398         1.294954         0.369887
 H         0.101466        -1.766718         0.089857
 H         0.176383        -0.856131         1.745488
 H        -0.556124        -0.043753         0.420485
 H         2.433371        -1.458249        -1.447574
 H         1.624534         0.014104        -2.261700
 H         4.923570        -0.868778        -1.495181
 H         5.419345         0.097486         0.004242
 H         3.139848         0.014503         1.716625
 H         3.492248         2.235695         0.587476
 H         2.439786         2.290341        -1.134133
