19
Iteration:  4327charge 0 multiplicity 1
 C         0.074544        -0.604774         0.549778
 C         1.517105        -0.144253         0.216968
 C         1.950885         1.044020        -0.628046
 C         3.372516         0.498735        -0.189173
 C         4.212697         0.026389        -1.313228
 O         3.356612        -1.086685        -1.591506
 C         2.756715        -0.943584        -0.223034
 C         3.360371         0.892035         1.245248
 O         2.096505         0.213902         1.579185
 H        -0.482698        -0.726153        -0.380312
 H         0.088709        -1.587468         0.948848
 H        -0.421784        -0.033269         1.230486
 H         1.958954         0.954208        -1.854075
 H         1.685795         2.099572        -0.421911
 H         4.212760         0.848560        -2.041757
 H         5.224962        -0.218178        -1.040137
 H         3.186155        -1.858019         0.336400
 H         4.153566         0.423114         1.736549
 H         3.360824         2.007285         1.333844
