19
Iteration:  3116charge 0 multiplicity 1
 C         0.017323        -0.697175         0.552357
 C         1.453864        -0.116403         0.223262
 C         1.924792         0.904586        -0.836920
 C         3.345181         0.466849        -0.280281
 C         4.373050        -0.130295        -1.322072
 O         3.534503        -1.279577        -1.436182
 C         2.808944        -1.012003        -0.003627
 C         3.263354         1.160024         1.112140
 O         1.970858         0.563275         1.553644
 H        -0.094707        -1.770384         0.251443
 H        -0.026172        -0.702147         1.665916
 H        -0.843189        -0.022582         0.299937
 H         1.687621         0.653285        -1.875176
 H         1.635290         1.827346        -0.523674
 H         4.504932         0.415201        -2.247462
 H         5.284208        -0.406156        -0.851642
 H         3.346347        -1.584592         0.750969
 H         4.155876         0.956828         1.787986
 H         3.182746         2.358621         1.075458
