19
Iteration:  4221
 C         0.173970        -0.640842         0.377434
 C         1.570085        -0.142716         0.257817
 C         1.995438         1.023308        -0.593481
 C         3.415011         0.594328        -0.222108
 C         4.186338        -0.019959        -1.436845
 O         3.200190        -1.065656        -1.523053
 C         2.838539        -0.894978        -0.138223
 C         3.329757         0.830536         1.269990
 O         2.030927         0.231591         1.627865
 H        -0.135704        -1.122955        -0.606163
 H         0.351837        -1.382230         1.280197
 H        -0.571764         0.269485         0.550350
 H         1.773399         0.810436        -1.661259
 H         1.709317         1.994078        -0.246664
 H         4.269650         0.649416        -2.388445
 H         5.220539        -0.399888        -1.177004
 H         3.161873        -1.578462         0.506019
 H         4.200140         0.374388         1.875471
 H         3.362337         1.905905         1.571205
