19
Iteration:   683
 C         0.224620        -0.791861         0.667494
 C         1.471738        -0.167626         0.154537
 C         2.173574        -0.298010        -1.265789
 C         3.313179         0.430644        -0.570615
 C         4.560437        -0.481013        -0.561744
 O         3.920927        -1.430127         0.244692
 C         2.899610        -0.428979         0.748195
 C         2.722119         1.774074        -0.257059
 O         1.444287         1.240033         0.396028
 H         0.238545        -1.881152         0.524094
 H         0.048482        -0.631306         1.800773
 H        -0.583354        -0.473563         0.010288
 H         2.353624        -1.381610        -1.365383
 H         1.586897         0.141737        -2.175538
 H         4.816860        -0.844513        -1.565918
 H         5.468240        -0.067989        -0.087089
 H         3.211133        -0.032163         1.762617
 H         3.254798         2.368655         0.540681
 H         2.532095         2.589683        -1.103002
