19
Iteration:  1082charge 0 multiplicity 1
 C         0.195498        -0.792780         0.562782
 C         1.491280        -0.128794         0.219860
 C         1.975579         0.024929        -1.225708
 C         3.305375         0.453561        -0.507375
 C         4.518622        -0.376732        -0.789892
 O         3.921396        -1.592140        -0.040580
 C         2.870977        -0.660130         0.585959
 C         2.865648         1.704442         0.095338
 O         1.563019         1.222098         0.700127
 H         0.220162        -1.135175         1.618912
 H        -0.635360        -0.097526         0.266643
 H         0.183919        -1.616021        -0.124624
 H         2.114882        -0.884953        -1.737854
 H         1.443313         0.811008        -1.884440
 H         4.794220        -0.773719        -1.834204
 H         5.533945        -0.039287        -0.382176
 H         3.095208        -0.370442         1.682301
 H         3.419445         2.162521         0.881939
 H         2.561090         2.356281        -0.752991
