19
Iteration:  3900charge 0 multiplicity 1
 C         0.058503        -0.653972         0.490541
 C         1.479581        -0.131599         0.198072
 C         1.950304         1.005681        -0.666840
 C         3.394424         0.485346        -0.160432
 C         4.297862        -0.004395        -1.363298
 O         3.244409        -1.003852        -1.617277
 C         2.803125        -0.952465        -0.225998
 C         3.386578         0.921922         1.292340
 O         2.111191         0.242999         1.651625
 H        -0.198247        -1.445878        -0.293212
 H         0.170160        -1.119762         1.455312
 H        -0.639773         0.152983         0.706086
 H         1.787608         0.728434        -1.725775
 H         1.637399         1.965649        -0.374334
 H         4.415721         0.697718        -2.237796
 H         5.219575        -0.484655        -1.094964
 H         3.165643        -1.786470         0.452257
 H         4.154480         0.570596         1.915743
 H         3.306590         2.022708         1.425455
