19
Iteration:  1701
 C         0.117866        -0.803295         0.634014
 C         1.479342        -0.191069         0.187884
 C         1.919781         0.429227        -1.165516
 C         3.333177         0.441546        -0.403279
 C         4.487585        -0.311149        -0.989346
 O         3.754211        -1.572237        -0.572705
 C         2.914561        -0.834389         0.339347
 C         3.032760         1.632924         0.475338
 O         1.716030         1.058639         1.073333
 H         0.277551        -1.713758         1.176557
 H        -0.541634        -0.081067         1.074266
 H        -0.351780        -1.162676        -0.288079
 H         1.941282        -0.224729        -2.033768
 H         1.469952         1.463984        -1.433680
 H         4.498483        -0.246944        -2.085805
 H         5.491105        -0.223148        -0.442925
 H         3.073809        -1.196951         1.427325
 H         3.516061         1.856831         1.441736
 H         2.841085         2.559939        -0.217747
