19
Iteration:  1428
 C         0.219768        -0.672859         0.578782
 C         1.598478        -0.209316         0.193721
 C         1.940816         0.158447        -1.274667
 C         3.363428         0.501515        -0.391647
 C         4.491524        -0.426719        -0.901328
 O         3.759474        -1.544853        -0.419762
 C         2.908073        -0.709743         0.460236
 C         2.884244         1.723749         0.462374
 O         1.617884         1.038353         0.881821
 H         0.068804        -1.808331         0.502297
 H        -0.070115        -0.327446         1.612960
 H        -0.352850        -0.173785        -0.214963
 H         2.153236        -0.847156        -1.806013
 H         1.390708         0.928409        -1.788116
 H         4.574403        -0.417642        -1.981297
 H         5.432096        -0.047059        -0.448755
 H         3.093761        -0.829947         1.551976
 H         3.438230         1.904611         1.359225
 H         2.517100         2.521914        -0.141444
