19
Iteration:  1615charge 0 multiplicity 1
 C         0.169832        -0.822138         0.529070
 C         1.482255        -0.192657         0.166863
 C         1.929978         0.314821        -1.156527
 C         3.317886         0.454912        -0.365888
 C         4.452986        -0.377622        -0.982906
 O         3.758634        -1.546033        -0.550646
 C         2.927947        -0.795018         0.467651
 C         3.056446         1.685812         0.476399
 O         1.663718         1.123784         1.031604
 H        -0.344928        -1.206220        -0.355284
 H         0.334912        -1.688645         1.175014
 H        -0.533243        -0.094352         1.003596
 H         1.966153        -0.441237        -1.942862
 H         1.422879         1.278256        -1.461408
 H         4.327361        -0.216708        -2.046988
 H         5.502265        -0.260089        -0.720514
 H         3.247197        -0.983954         1.511431
 H         3.671838         1.820616         1.357410
 H         2.758932         2.514011        -0.260201
