19
Iteration:  1978
 C         0.133940        -0.832286         0.538053
 C         1.516668        -0.213031         0.212459
 C         1.944393         0.473156        -1.220454
 C         3.317979         0.565844        -0.463237
 C         4.445217        -0.316609        -1.058551
 O         3.525069        -1.518025        -0.755792
 C         2.951516        -0.671369         0.318985
 C         3.129631         1.537839         0.704654
 O         1.788743         0.920904         1.257979
 H        -0.062713        -1.160412         1.570572
 H        -0.563816        -0.085281         0.271627
 H         0.000439        -1.664230        -0.109500
 H         1.930594        -0.446257        -1.910301
 H         1.492222         1.422154        -1.543243
 H         4.576367        -0.252962        -2.173619
 H         5.314432        -0.467877        -0.416572
 H         3.391959        -1.005450         1.331168
 H         3.806207         1.277848         1.453768
 H         2.974959         2.597832         0.673736
