19
Iteration:     2
 C         0.240623        -0.798815         0.725294
 C         1.506096        -0.248875         0.140164
 C         2.237901        -0.708641        -1.113425
 C         3.318376         0.297912        -0.608641
 C         4.653560        -0.360773        -0.276016
 O         3.974866        -1.093954         0.814357
 C         2.895134        -0.105516         0.820370
 C         2.592784         1.610872        -0.786566
 O         1.335004         1.200510        -0.161481
 H        -0.059468        -0.238353         1.590147
 H        -0.571229        -0.720434         0.014868
 H         0.382554        -1.837402         1.005979
 H         2.526007        -1.760397        -1.070510
 H         1.745360        -0.474103        -2.048459
 H         5.094912        -1.014313        -0.990151
 H         5.395324         0.346773         0.141540
 H         2.934929         0.586318         1.685599
 H         3.019915         2.440568        -0.168251
 H         2.393791         1.933597        -1.847310
