19
Iteration:  2212charge 0 multiplicity 1
 C         0.071056        -0.750039         0.556767
 C         1.531654        -0.164512         0.194590
 C         2.009822         0.630615        -1.129628
 C         3.351541         0.637318        -0.412872
 C         4.357304        -0.271567        -1.178893
 O         3.544403        -1.517626        -0.948645
 C         2.998516        -0.830258         0.205377
 C         3.067983         1.436060         0.981008
 O         1.821142         0.777683         1.281733
 H         0.149995        -1.342855         1.427330
 H        -0.498221         0.146625         0.873171
 H        -0.483666        -1.280201        -0.211489
 H         2.139912        -0.222981        -1.939516
 H         1.414703         1.507881        -1.422234
 H         4.476617        -0.121299        -2.255900
 H         5.327135        -0.514224        -0.735818
 H         3.274188        -1.081178         1.331690
 H         3.799666         1.065666         1.621397
 H         3.052449         2.608229         0.945357
