19
Iteration:  4089charge 0 multiplicity 1
 C         0.171297        -0.712889         0.368358
 C         1.545682        -0.132170         0.283604
 C         1.925609         1.061808        -0.644565
 C         3.381750         0.528614        -0.175719
 C         4.180351         0.067465        -1.412742
 O         3.238371        -1.113272        -1.561024
 C         2.779304        -0.893513        -0.163673
 C         3.485448         0.748915         1.309725
 O         2.029386         0.372457         1.646672
 H         0.169777        -1.381038        -0.544772
 H        -0.050311        -1.414894         1.254346
 H        -0.628543         0.078074         0.354467
 H         1.648389         1.056313        -1.802103
 H         1.622574         1.985999        -0.273075
 H         4.179825         0.713122        -2.388120
 H         5.222160        -0.240911        -1.219910
 H         3.137254        -1.683410         0.646388
 H         4.327499         0.135479         1.743710
 H         3.604458         1.761780         1.636357
