19
Iteration:   942charge 0 multiplicity 1
 C         0.121655        -0.825777         0.618165
 C         1.455388        -0.166389         0.186921
 C         1.960399        -0.098793        -1.238282
 C         3.323077         0.421846        -0.477158
 C         4.569039        -0.458906        -0.724482
 O         3.963003        -1.531633        -0.002762
 C         2.914665        -0.491506         0.661309
 C         2.796747         1.732950         0.002315
 O         1.587462         1.255939         0.579320
 H        -0.709278        -0.052634         0.513726
 H        -0.054153        -1.731454        -0.109933
 H         0.110090        -1.376264         1.582699
 H         2.249969        -1.020110        -1.690924
 H         1.558930         0.578104        -2.096615
 H         4.829846        -0.644200        -1.760736
 H         5.461300        -0.055590        -0.209008
 H         3.066805        -0.246821         1.727022
 H         3.518824         2.174289         0.862707
 H         2.627294         2.613266        -0.814638
