19
Iteration:  2352
 C         0.117269        -0.700964         0.497990
 C         1.492578        -0.094971         0.285634
 C         1.840241         0.569058        -1.024371
 C         3.242648         0.540103        -0.353840
 C         4.333288        -0.177086        -1.110501
 O         3.610488        -1.502529        -1.080314
 C         2.961259        -0.896134         0.157823
 C         3.234233         1.286409         0.909244
 O         1.884607         0.874601         1.316050
 H        -0.533115        -0.074520        -0.104332
 H        -0.025595        -1.797938         0.138673
 H        -0.351990        -0.611492         1.506664
 H         1.702660        -0.229540        -1.862716
 H         1.475678         1.571559        -1.207535
 H         4.506893         0.158664        -2.206289
 H         5.343041        -0.305779        -0.634638
 H         3.312930        -1.209446         1.103548
 H         3.996665         1.016760         1.798229
 H         3.151566         2.390221         0.912350
