19
Iteration:  2826charge 0 multiplicity 1
 C         0.099307        -0.764971         0.548638
 C         1.514172        -0.224230         0.231503
 C         1.937556         0.749135        -0.887880
 C         3.332227         0.552982        -0.286640
 C         4.344844        -0.133399        -1.275680
 O         3.446574        -1.299110        -1.219607
 C         2.899794        -0.887667         0.036075
 C         3.238183         1.205674         1.038471
 O         1.909224         0.685735         1.410044
 H        -0.189986        -1.805876         0.231214
 H        -0.139373        -0.456209         1.571475
 H        -0.560877        -0.084488        -0.043222
 H         1.961200         0.320133        -1.807500
 H         1.571065         1.684346        -0.900074
 H         4.608897         0.169767        -2.263584
 H         5.220183        -0.350766        -0.699339
 H         3.173247        -1.573258         0.837446
 H         4.048087         0.780916         1.710761
 H         3.374728         2.337187         1.019305
