19
Iteration:  1941
 C         0.251552        -0.792482         0.586020
 C         1.535696        -0.174410         0.194520
 C         1.899282         0.555397        -1.094920
 C         3.406815         0.442347        -0.263172
 C         4.443433        -0.295903        -1.079385
 O         3.650933        -1.621289        -0.781852
 C         2.839554        -0.940796         0.271584
 C         2.980096         1.655125         0.646268
 O         1.754629         1.021416         1.121170
 H         0.385832        -1.765277         1.052625
 H        -0.232642        -0.111903         1.373595
 H        -0.457861        -0.929389        -0.304657
 H         1.790629        -0.003094        -2.047346
 H         1.466348         1.537913        -1.342146
 H         4.524003         0.050365        -2.068625
 H         5.456490        -0.376247        -0.698928
 H         2.839279        -1.328626         1.291970
 H         3.688678         1.697394         1.636731
 H         2.931551         2.611228         0.110819
