19
Iteration:    42
 C         0.230192        -0.828649         0.705747
 C         1.469308        -0.189022         0.080987
 C         2.108924        -0.740735        -1.108969
 C         3.317667         0.286857        -0.622735
 C         4.603197        -0.331803        -0.274913
 O         4.051132        -1.111463         0.816458
 C         2.893420        -0.191872         0.809277
 C         2.622161         1.656775        -0.777734
 O         1.398618         1.249840        -0.101324
 H        -0.698532        -0.172571         0.566771
 H         0.257730        -1.846279         0.260028
 H         0.330793        -1.003411         1.812949
 H         2.374467        -1.774660        -0.884365
 H         1.619798        -0.624354        -2.120405
 H         5.244541        -0.996106        -0.992350
 H         5.311084         0.412361         0.111441
 H         2.955388         0.484055         1.643141
 H         3.089937         2.477362        -0.250497
 H         2.535048         2.094074        -1.754760
