19
Iteration:  2409
 C         0.210159        -0.746517         0.548679
 C         1.456738        -0.092764         0.202654
 C         1.983141         0.817020        -0.917924
 C         3.349115         0.489027        -0.296809
 C         4.355186        -0.254625        -1.233207
 O         3.608050        -1.604706        -1.065633
 C         2.884330        -0.958866         0.121891
 C         3.098414         1.416339         0.887430
 O         1.804514         0.825875         1.348404
 H        -0.400084        -0.842913        -0.281393
 H         0.409306        -1.754080         0.831899
 H        -0.317334        -0.294248         1.375132
 H         1.867773         0.413929        -1.982494
 H         1.576318         1.911009        -0.933581
 H         4.307615        -0.085668        -2.323757
 H         5.369919        -0.359039        -0.841299
 H         3.120861        -1.426301         1.104808
 H         3.726428         1.615544         1.826982
 H         2.850886         2.419230         0.508104
