19
Iteration:  4853charge 0 multiplicity 1
 C         0.211612        -0.770688         0.380701
 C         1.529890        -0.098166         0.266342
 C         1.909246         1.149011        -0.555795
 C         3.355039         0.582576        -0.189250
 C         4.220290        -0.079781        -1.402363
 O         3.220866        -1.148288        -1.589746
 C         2.756190        -0.888277        -0.233031
 C         3.501155         0.825243         1.328302
 O         2.011661         0.357937         1.610657
 H         0.122506        -1.523885        -0.406970
 H         0.229240        -1.261849         1.397339
 H        -0.618621        -0.075784         0.205256
 H         1.801894         1.019136        -1.753539
 H         1.674915         2.106631        -0.049219
 H         4.224094         0.688193        -2.232537
 H         5.326189        -0.213366        -1.053980
 H         3.059585        -1.603281         0.453763
 H         4.141316         0.184310         1.885511
 H         3.664587         1.860788         1.632752
