19
Iteration:  2550charge 0 multiplicity 1
 C         0.077325        -0.839634         0.486150
 C         1.470104        -0.188757         0.238677
 C         1.852466         0.688351        -0.959606
 C         3.360231         0.568967        -0.346935
 C         4.348868        -0.193061        -1.180595
 O         3.518755        -1.431995        -1.112444
 C         2.894959        -0.847474         0.153128
 C         3.292580         1.305220         0.955568
 O         1.899200         0.868768         1.344415
 H         0.123972        -1.845847         0.997321
 H        -0.563899        -0.182549         1.211371
 H        -0.552619        -0.803482        -0.456306
 H         1.798105         0.161369        -1.865749
 H         1.528565         1.668763        -1.054323
 H         4.751637        -0.118902        -2.217510
 H         5.219783        -0.381867        -0.476174
 H         3.289210        -1.355328         1.020367
 H         3.979447         0.766396         1.643964
 H         3.335102         2.363788         0.886560
