19
Iteration:  1770charge 0 multiplicity 1
 C         0.201059        -0.731305         0.569884
 C         1.512158        -0.122530         0.128956
 C         1.926031         0.512226        -1.163722
 C         3.316795         0.472391        -0.353872
 C         4.401798        -0.362260        -1.021119
 O         3.759795        -1.593911        -0.604967
 C         2.918537        -0.868971         0.386270
 C         2.979215         1.604939         0.538855
 O         1.713365         0.955609         1.116719
 H        -0.326838        -0.308736         1.415455
 H        -0.473523        -0.921847        -0.279242
 H         0.479321        -1.751425         0.922919
 H         1.909687        -0.111534        -2.109037
 H         1.521422         1.522296        -1.344897
 H         4.361172        -0.366658        -2.134587
 H         5.396156        -0.205484        -0.553223
 H         3.336810        -1.005301         1.414741
 H         3.702233         1.986152         1.227757
 H         2.614426         2.496978        -0.199736
