19
Iteration:   822charge 0 multiplicity 1
 C         0.165368        -0.759567         0.589761
 C         1.430058        -0.157293         0.151324
 C         2.101602        -0.309863        -1.180560
 C         3.316122         0.457708        -0.544316
 C         4.534049        -0.419270        -0.674774
 O         3.882028        -1.488349         0.126215
 C         2.999385        -0.476120         0.644692
 C         2.766650         1.729736        -0.046753
 O         1.516428         1.277455         0.485528
 H        -0.124612        -1.431473        -0.251198
 H         0.268978        -1.439294         1.502504
 H        -0.589374        -0.000237         0.875152
 H         2.444961        -1.282479        -1.538381
 H         1.601620         0.137942        -2.154082
 H         4.754487        -0.776007        -1.685391
 H         5.436197        -0.158917        -0.048301
 H         3.303812        -0.174689         1.651697
 H         3.392073         2.281990         0.765865
 H         2.531657         2.626233        -0.606603
