19
Iteration:  2782
 C         0.069778        -0.732968         0.482527
 C         1.512525        -0.153367         0.247968
 C         1.975826         0.756201        -0.943280
 C         3.359425         0.563491        -0.374027
 C         4.313527        -0.167695        -1.255034
 O         3.505602        -1.352821        -1.171069
 C         2.835752        -0.906560         0.045000
 C         3.245040         1.263454         0.989595
 O         1.924595         0.613276         1.532816
 H        -0.459827        -0.949471        -0.506401
 H         0.118230        -1.563927         1.181788
 H        -0.550296        -0.013870         1.064316
 H         1.862848         0.282975        -1.829124
 H         1.642759         1.714083        -0.952202
 H         4.415074         0.191452        -2.252011
 H         5.280187        -0.311210        -0.827167
 H         3.277683        -1.355722         0.920980
 H         4.071641         1.220634         1.735023
 H         2.873882         2.319686         0.925103
