19
Iteration:  2066charge 0 multiplicity 1
 C         0.218562        -0.689020         0.474275
 C         1.561594        -0.203044         0.182535
 C         1.923689         0.474422        -1.135653
 C         3.272492         0.535651        -0.427078
 C         4.383954        -0.261926        -1.036732
 O         3.556150        -1.511814        -0.840320
 C         2.938264        -0.814507         0.236385
 C         3.024162         1.469883         0.776905
 O         1.829986         0.878306         1.311527
 H        -0.468855         0.148319         0.247697
 H         0.014294        -1.579053        -0.020598
 H         0.153069        -0.903308         1.509946
 H         1.796769        -0.299051        -1.891861
 H         1.340594         1.451774        -1.372583
 H         4.797238        -0.085953        -2.068834
 H         5.157843        -0.308238        -0.284791
 H         3.464545        -1.155658         1.206492
 H         3.882533         1.440088         1.521469
 H         2.964342         2.466361         0.330962
