19
Iteration:  3748
 C         0.082247        -0.693099         0.509728
 C         1.476667        -0.072868         0.257638
 C         1.902465         1.029287        -0.625505
 C         3.390699         0.589871        -0.204509
 C         4.228164         0.072280        -1.376696
 O         3.336555        -1.098660        -1.587410
 C         2.739026        -0.949976        -0.188270
 C         3.534801         0.757259         1.292789
 O         2.005546         0.323418         1.544627
 H        -0.277636        -1.186487        -0.306874
 H         0.338461        -1.333925         1.243162
 H        -0.653079        -0.029832         0.720410
 H         1.675198         0.787410        -1.789719
 H         1.541902         2.066432        -0.439701
 H         4.436211         0.777419        -2.240413
 H         5.212662        -0.255793        -1.013955
 H         3.185450        -1.710483         0.485433
 H         4.230551        -0.064182         1.790415
 H         3.738018         1.737560         1.803327
