19
Iteration:  2532
 C         0.099811        -0.696300         0.531459
 C         1.532840        -0.134518         0.293630
 C         1.892767         0.564584        -1.033388
 C         3.343832         0.606579        -0.374615
 C         4.378515        -0.220488        -1.208770
 O         3.495121        -1.409421        -1.067478
 C         2.945733        -0.818595         0.117824
 C         3.219235         1.208591         1.034511
 O         1.831242         0.811717         1.316431
 H         0.110164        -1.757951         0.682216
 H        -0.395610        -0.263598         1.276639
 H        -0.424635        -0.579518        -0.364634
 H         1.864246        -0.119882        -1.913613
 H         1.287230         1.586905        -1.244819
 H         4.361050         0.064957        -2.255305
 H         5.420445        -0.205691        -0.848673
 H         3.539073        -1.123334         1.015722
 H         3.963852         0.730646         1.636569
 H         3.252706         2.293563         1.265883
