19
Iteration:  2539charge 0 multiplicity 1
 C         0.039643        -0.744190         0.517024
 C         1.502490        -0.171124         0.322284
 C         1.925740         0.607954        -1.015909
 C         3.293055         0.621736        -0.434238
 C         4.359267        -0.238739        -1.225457
 O         3.513600        -1.413812        -1.072838
 C         2.957744        -0.805622         0.126520
 C         3.278600         1.228275         1.020792
 O         1.847402         0.849306         1.321925
 H         0.174173        -1.850646         0.718385
 H        -0.549265        -0.230776         1.385763
 H        -0.467635        -0.785517        -0.503858
 H         1.945919         0.050668        -1.901277
 H         1.299878         1.413714        -1.086384
 H         4.645783         0.265725        -2.187707
 H         5.285304        -0.468702        -0.608672
 H         3.405338        -1.232861         0.995529
 H         4.004739         0.815611         1.766701
 H         3.354067         2.259706         1.260836
