19
Iteration:    23charge 0 multiplicity 1
 C         0.132957        -0.938339         0.731356
 C         1.459231        -0.280137         0.234245
 C         2.086630        -0.692089        -1.120415
 C         3.288656         0.219463        -0.600850
 C         4.703376        -0.228372        -0.318357
 O         4.036433        -1.129541         0.814602
 C         2.860472        -0.110840         0.858318
 C         2.754929         1.580952        -0.807405
 O         1.380522         1.343922        -0.200492
 H        -0.558533        -0.169279         1.081269
 H        -0.346826        -1.537404        -0.047123
 H         0.376321        -1.582662         1.583483
 H         2.424832        -1.691333        -1.311914
 H         1.577548        -0.276207        -1.987379
 H         5.283225        -0.790997        -1.032207
 H         5.322559         0.538200         0.165347
 H         3.044484         0.512196         1.726224
 H         3.317527         2.325392        -0.298968
 H         2.606559         1.837751        -1.852114
