19
Iteration:  3289charge 0 multiplicity 1
 C         0.101989        -0.736806         0.500213
 C         1.461089        -0.120282         0.249987
 C         1.915368         0.977232        -0.768950
 C         3.372301         0.552256        -0.299351
 C         4.308063        -0.064751        -1.379357
 O         3.405613        -1.267233        -1.307977
 C         2.827022        -0.838949        -0.063946
 C         3.283250         1.047671         1.144357
 O         2.046931         0.395729         1.523161
 H        -0.232448        -0.321032         1.430484
 H        -0.468821        -0.300971        -0.279124
 H         0.006023        -1.760076         0.528874
 H         1.597658         0.563563        -1.851562
 H         1.652361         2.049877        -0.624992
 H         4.491973         0.345745        -2.418455
 H         5.322921        -0.462134        -1.073704
 H         3.092255        -1.490801         0.771267
 H         4.005712         0.586183         1.720008
 H         3.219743         2.109372         1.317483
