19
Iteration:  3698charge 0 multiplicity 1
 C         0.141965        -0.572296         0.448349
 C         1.583579        -0.213924         0.272621
 C         1.893273         0.954783        -0.686429
 C         3.404640         0.577344        -0.142477
 C         4.196345        -0.006777        -1.370260
 O         3.267721        -1.074451        -1.567267
 C         2.821057        -0.876800        -0.160913
 C         3.365374         0.975644         1.274146
 O         2.098415         0.126255         1.568678
 H        -0.419414         0.186034        -0.254852
 H        -0.226420        -1.749326         0.273222
 H        -0.248069        -0.156111         1.527640
 H         1.873607         0.744812        -1.696253
 H         1.527287         2.003229        -0.505792
 H         4.243281         0.681432        -2.182884
 H         5.194081        -0.380965        -1.059177
 H         3.098872        -1.676787         0.537099
 H         4.146932         0.616218         1.853972
 H         3.234486         2.011114         1.416733
