19
Iteration:  4035charge 0 multiplicity 1
 C         0.121382        -0.632315         0.476100
 C         1.484888        -0.166220         0.327465
 C         1.922668         1.012697        -0.570817
 C         3.365580         0.392965        -0.157753
 C         4.351116         0.032720        -1.300511
 O         3.293385        -1.006964        -1.695959
 C         2.737836        -0.927664        -0.259931
 C         3.309185         0.904768         1.242706
 O         2.139320         0.265855         1.595255
 H        -0.156685        -1.337058        -0.220387
 H         0.061061        -1.144189         1.446813
 H        -0.647316         0.124124         0.475938
 H         1.519486         0.743164        -1.689865
 H         1.805115         2.137942        -0.559125
 H         4.477435         0.853535        -2.056084
 H         5.260875        -0.433706        -1.054434
 H         2.945705        -1.788845         0.553491
 H         4.171317         0.512377         1.851977
 H         3.284401         1.958875         1.325876
