19
Iteration:  1327
 C         0.188992        -0.862868         0.583976
 C         1.490428        -0.100951         0.125654
 C         2.040522         0.198228        -1.222829
 C         3.369167         0.460311        -0.387431
 C         4.514762        -0.478452        -0.933279
 O         3.753726        -1.574285        -0.286576
 C         2.966454        -0.690931         0.521851
 C         2.808670         1.737301         0.347423
 O         1.627606         1.179202         0.820278
 H        -0.447710        -0.051645         0.947287
 H        -0.367710        -1.437856        -0.165593
 H         0.554115        -1.553482         1.373934
 H         2.194350        -0.586575        -1.885268
 H         1.588216         1.115972        -1.757406
 H         4.574354        -0.655115        -1.988190
 H         5.446189        -0.492246        -0.365711
 H         3.088374        -0.753765         1.642830
 H         3.220263         2.168270         1.190170
 H         2.657563         2.602094        -0.385828
