19
Iteration:  2689charge 0 multiplicity 1
 C         0.217404        -0.675157         0.482932
 C         1.591118        -0.199198         0.204849
 C         1.945832         0.747803        -1.047262
 C         3.291334         0.606568        -0.327609
 C         4.301346        -0.176139        -1.165383
 O         3.403383        -1.429377        -1.135982
 C         2.947200        -0.931180         0.145498
 C         3.118417         1.299802         1.009258
 O         1.909935         0.642391         1.417783
 H        -0.127834         0.085076         1.103321
 H        -0.477888        -0.886798        -0.360406
 H         0.339663        -1.622881         1.013653
 H         1.670358         0.159651        -2.040135
 H         1.513155         1.820770        -1.113941
 H         4.550357         0.081365        -2.247950
 H         5.242819        -0.422851        -0.593486
 H         3.518752        -1.212355         1.129043
 H         4.017249         1.268367         1.709298
 H         2.939930         2.422194         0.824696
