19
Iteration:   469
 C         0.053606        -0.887136         0.666631
 C         1.464158        -0.219251         0.187011
 C         2.150178        -0.494105        -1.156681
 C         3.320242         0.332517        -0.574469
 C         4.628591        -0.333170        -0.540821
 O         3.944635        -1.334443         0.436275
 C         2.954961        -0.290559         0.787348
 C         2.773754         1.710094        -0.457135
 O         1.451650         1.317691         0.192437
 H        -0.315877        -1.571891        -0.033293
 H         0.331993        -1.372618         1.607610
 H        -0.673144        -0.160507         0.937087
 H         2.328000        -1.526309        -1.224819
 H         1.632550        -0.017923        -1.953630
 H         5.009472        -0.599251        -1.548900
 H         5.397635         0.168132         0.030284
 H         3.055702         0.120249         1.785252
 H         3.247556         2.355745         0.351562
 H         2.656019         2.248347        -1.381689
