19
Iteration:  2203
 C         0.094692        -0.750263         0.535289
 C         1.476420        -0.205734         0.172294
 C         1.942831         0.574909        -1.067868
 C         3.342741         0.602448        -0.377450
 C         4.394414        -0.282540        -1.178285
 O         3.572249        -1.475501        -0.935207
 C         2.928244        -0.825352         0.218673
 C         3.166013         1.408238         0.893874
 O         1.803177         0.850492         1.307072
 H         0.155935        -1.674561         1.182688
 H        -0.414809         0.092392         1.047981
 H        -0.560466        -1.050953        -0.325297
 H         2.023760         0.025043        -2.063725
 H         1.504380         1.520359        -1.274178
 H         4.571076         0.010886        -2.202708
 H         5.356886        -0.321193        -0.543507
 H         3.451591        -1.337312         1.061023
 H         3.915249         1.109959         1.633300
 H         2.999021         2.543675         0.739109
