19
Iteration:  4839charge 0 multiplicity 1
 C         0.116115        -0.793323         0.442941
 C         1.521533        -0.052409         0.241302
 C         1.969242         1.142176        -0.583549
 C         3.471161         0.578967        -0.186287
 C         4.167281        -0.000422        -1.357518
 O         3.218195        -1.148280        -1.572205
 C         2.816126        -0.849152        -0.212176
 C         3.398509         0.803498         1.333664
 O         2.086455         0.331412         1.525845
 H         0.127968        -1.485345        -0.385393
 H         0.076166        -1.395954         1.292356
 H        -0.722421        -0.232585         0.507563
 H         1.588394         1.173589        -1.696335
 H         1.590171         2.143504        -0.185621
 H         4.324519         0.432356        -2.342555
 H         4.999747        -0.613441        -1.089454
 H         3.208874        -1.706046         0.452516
 H         4.162484         0.148400         1.864634
 H         3.404421         1.833510         1.733818
