19
Iteration:  4872charge 0 multiplicity 1
 C         0.117894        -0.718566         0.380473
 C         1.517786        -0.094994         0.309389
 C         2.000708         1.021257        -0.610572
 C         3.413923         0.479907        -0.209580
 C         4.208100         0.047034        -1.402471
 O         3.216091        -1.032997        -1.531258
 C         2.784441        -0.897597        -0.127936
 C         3.384777         0.796273         1.213905
 O         2.097766         0.335335         1.618136
 H        -0.121934        -1.372150        -0.453486
 H        -0.006494        -1.292175         1.255801
 H        -0.709154        -0.106476         0.201704
 H         1.652707         0.768998        -1.722233
 H         1.815423         2.039231        -0.154546
 H         4.362968         0.737648        -2.266882
 H         5.203559        -0.321276        -1.131623
 H         3.127335        -1.834835         0.543197
 H         4.209108         0.244421         1.784584
 H         3.466015         1.878199         1.471632
