19
Iteration:   957
 C         0.168569        -0.769740         0.608900
 C         1.475218        -0.186816         0.104247
 C         2.060352        -0.126032        -1.323268
 C         3.300406         0.455286        -0.564895
 C         4.563085        -0.417768        -0.730655
 O         3.868559        -1.517707         0.075650
 C         2.946291        -0.569302         0.581426
 C         2.825241         1.804526         0.031190
 O         1.546346         1.188968         0.718517
 H        -0.710711        -0.294735         0.189202
 H         0.145244        -1.815732         0.391461
 H         0.188313        -0.522967         1.680449
 H         2.139637        -1.201407        -1.729790
 H         1.433787         0.456070        -1.956883
 H         4.718948        -0.837651        -1.750127
 H         5.478269        -0.086472        -0.187407
 H         3.230505        -0.411904         1.611592
 H         3.378472         2.392429         0.815428
 H         2.447281         2.488660        -0.678708
