19
Iteration:  1195
 C         0.288472        -0.821622         0.561621
 C         1.535851        -0.185651         0.208976
 C         1.962527         0.000589        -1.232238
 C         3.337593         0.464728        -0.489284
 C         4.512006        -0.417379        -0.826687
 O         3.730844        -1.563231        -0.181056
 C         2.964867        -0.539493         0.507993
 C         2.941415         1.711069         0.266964
 O         1.500385         1.236628         0.728797
 H        -0.134993        -1.090912        -0.433991
 H         0.351133        -1.709340         1.214875
 H        -0.550551        -0.166842         1.006060
 H         1.950612        -1.005113        -1.787603
 H         1.387185         0.748255        -1.742033
 H         4.932434        -0.662603        -1.808813
 H         5.393981        -0.396625        -0.036266
 H         3.331293        -0.319210         1.581545
 H         3.484553         1.794926         1.165203
 H         2.793918         2.676650        -0.322590
