19
Iteration:  3013charge 0 multiplicity 1
 C         0.152980        -0.756218         0.492168
 C         1.542755        -0.172506         0.215023
 C         1.915942         0.870118        -0.903119
 C         3.396135         0.566335        -0.219450
 C         4.245015        -0.160125        -1.261730
 O         3.361658        -1.310388        -1.287260
 C         2.846649        -0.898774         0.009311
 C         3.281667         1.216848         1.127923
 O         1.986473         0.557748         1.461289
 H        -0.598380        -0.163013         0.098701
 H         0.162171        -1.713114         0.012238
 H        -0.090783        -0.831578         1.485902
 H         1.884481         0.516547        -2.016318
 H         1.538439         1.926568        -0.801062
 H         4.360969         0.391265        -2.206848
 H         5.240436        -0.454262        -0.914755
 H         3.240027        -1.666555         0.676802
 H         4.044226         0.883990         1.844393
 H         3.227847         2.338780         1.074857
