19
Iteration:  3150charge 0 multiplicity 1
 C         0.174272        -0.655347         0.441514
 C         1.538658        -0.154431         0.217493
 C         1.928837         0.782507        -0.889284
 C         3.383725         0.547408        -0.238536
 C         4.260091        -0.047090        -1.325378
 O         3.299257        -1.228162        -1.356201
 C         2.858227        -0.977207         0.058597
 C         3.316434         1.100463         1.227172
 O         1.988419         0.544176         1.478422
 H         0.097605        -1.803156         0.553085
 H        -0.039941        -0.203447         1.416273
 H        -0.619850        -0.424344        -0.408421
 H         1.773559         0.329302        -1.813975
 H         1.390676         1.654460        -0.886408
 H         4.495141         0.405503        -2.265514
 H         5.216306        -0.398511        -0.988849
 H         3.425370        -1.507681         0.841955
 H         4.136810         0.615963         1.893357
 H         3.150797         2.297458         1.360015
