19
Iteration:  2704
 C         0.184107        -0.771690         0.469011
 C         1.514623        -0.175087         0.241588
 C         1.887300         0.660048        -0.934794
 C         3.354103         0.519663        -0.298898
 C         4.348800        -0.208040        -1.182432
 O         3.466006        -1.345886        -1.171811
 C         2.835154        -0.887728         0.098690
 C         3.226729         1.373128         0.950572
 O         1.927186         0.735864         1.417601
 H        -0.580429         0.065288         0.782319
 H        -0.186150        -1.127186        -0.513016
 H         0.082039        -1.557981         1.268263
 H         1.941559         0.194780        -1.821120
 H         1.428957         1.588930        -0.942568
 H         4.519939         0.202823        -2.159992
 H         5.271464        -0.444148        -0.689597
 H         3.118831        -1.607880         0.900399
 H         3.979664         1.024033         1.723668
 H         3.079662         2.477711         0.953389
