19
Iteration:  3578charge 0 multiplicity 1
 C         0.055676        -0.631029         0.440117
 C         1.477371        -0.236778         0.285468
 C         1.928062         0.914991        -0.600214
 C         3.376673         0.466152        -0.204789
 C         4.255951         0.056459        -1.287420
 O         3.346728        -1.067486        -1.568964
 C         2.795202        -1.006439        -0.180755
 C         3.396849         0.966094         1.125915
 O         2.096927         0.357661         1.624261
 H        -0.258276        -0.503727         1.492675
 H        -0.559556         0.121100        -0.031103
 H        -0.104093        -1.592867        -0.103283
 H         1.700355         0.830227        -1.642971
 H         1.733079         2.024848        -0.190291
 H         4.258815         0.720282        -2.113507
 H         5.237086        -0.361726        -0.985645
 H         3.250449        -1.863036         0.347564
 H         4.186398         0.672903         1.857487
 H         3.185181         2.124302         1.099256
