19
Iteration:  3600charge 0 multiplicity 1
 C         0.162176        -0.676322         0.442478
 C         1.527283        -0.135847         0.296544
 C         1.894909         0.969807        -0.691804
 C         3.391890         0.560039        -0.214270
 C         4.275708        -0.029998        -1.358802
 O         3.245955        -1.095414        -1.592220
 C         2.816450        -0.894510        -0.156825
 C         3.336456         0.949889         1.277533
 O         2.097500         0.286924         1.604516
 H        -0.291351        -0.265701         1.372003
 H        -0.532065        -0.263922        -0.275423
 H         0.204630        -1.773409         0.261286
 H         1.817698         0.617634        -1.689967
 H         1.473973         2.057949        -0.434901
 H         4.554017         0.564059        -2.191020
 H         5.100869        -0.540906        -0.834386
 H         3.128662        -1.682988         0.555936
 H         4.053640         0.412430         1.901744
 H         3.290825         2.067951         1.550479
