19
Iteration:  1170
 C         0.169766        -0.903215         0.649992
 C         1.422254        -0.155451         0.144764
 C         2.048926         0.089153        -1.264280
 C         3.326539         0.495392        -0.496961
 C         4.483517        -0.407985        -0.760384
 O         3.832799        -1.564064        -0.170580
 C         2.833909        -0.646094         0.558710
 C         2.885087         1.754763         0.167325
 O         1.676464         1.235289         0.706208
 H        -0.722553        -0.760004         0.019984
 H         0.423095        -2.006409         0.584873
 H        -0.150405        -0.691113         1.675130
 H         2.173391        -0.894623        -1.830891
 H         1.553817         0.831785        -1.912723
 H         4.830660        -0.710250        -1.799273
 H         5.413033        -0.271803        -0.069379
 H         3.254627        -0.523384         1.620346
 H         3.491624         2.004539         1.080113
 H         2.700462         2.754262        -0.361201
