19
Iteration:  1718charge 0 multiplicity 1
 C         0.173739        -0.737165         0.499752
 C         1.521241        -0.118003         0.275769
 C         1.878077         0.254759        -1.090669
 C         3.265729         0.476321        -0.421810
 C         4.449795        -0.280651        -1.017201
 O         3.758868        -1.557224        -0.649468
 C         2.912932        -0.792421         0.418953
 C         3.006489         1.536950         0.582351
 O         1.726430         1.081629         0.995085
 H         0.146977        -1.328788         1.489298
 H        -0.626949         0.039355         0.676081
 H        -0.166819        -1.359495        -0.355934
 H         1.874616        -0.612055        -1.822411
 H         1.431823         1.104314        -1.470380
 H         4.686802        -0.161960        -2.089723
 H         5.322493        -0.159849        -0.412065
 H         3.364179        -1.002083         1.351060
 H         3.854996         1.612241         1.339558
 H         3.007191         2.582616         0.362680
