19
Iteration:  4676
 C         0.148671        -0.690572         0.412386
 C         1.489328        -0.159372         0.295491
 C         2.000073         0.971158        -0.672452
 C         3.456961         0.499633        -0.140846
 C         4.246879        -0.038553        -1.392746
 O         3.161751        -0.987997        -1.628381
 C         2.768023        -0.848237        -0.157330
 C         3.370793         0.903454         1.338082
 O         2.129793         0.263760         1.597118
 H         0.031719        -1.561942        -0.324615
 H        -0.042059        -1.182359         1.434542
 H        -0.663655         0.053711         0.379936
 H         1.628774         0.910954        -1.647822
 H         1.761709         2.048341        -0.431191
 H         4.367062         0.666204        -2.207052
 H         5.143564        -0.594647        -1.203484
 H         3.088802        -1.651982         0.423803
 H         4.091043         0.460314         1.990390
 H         3.314013         1.964828         1.447241
