19
Iteration:   871charge 0 multiplicity 1
 C         0.250072        -0.856616         0.691929
 C         1.464950        -0.173903         0.110101
 C         2.051996        -0.044861        -1.413136
 C         3.314493         0.430630        -0.509736
 C         4.548418        -0.478133        -0.619895
 O         3.898301        -1.584057         0.144528
 C         2.893152        -0.460844         0.642651
 C         2.777491         1.804882        -0.081576
 O         1.530665         1.228555         0.573482
 H         0.529430        -1.554556         1.466086
 H        -0.322336        -0.084577         1.131405
 H        -0.432779        -1.240188        -0.062704
 H         2.157272        -1.075632        -1.898288
 H         1.620614         0.607306        -2.103783
 H         4.814466        -0.927562        -1.617247
 H         5.419005        -0.010958        -0.143951
 H         3.129023        -0.299622         1.714790
 H         3.222701         2.348696         0.654852
 H         2.549015         2.458761        -0.898284
