19
Iteration:  2355charge 0 multiplicity 1
 C         0.098598        -0.699488         0.478457
 C         1.488260        -0.121975         0.294465
 C         1.852034         0.520457        -1.061157
 C         3.260691         0.549421        -0.347198
 C         4.327339        -0.165826        -1.112820
 O         3.588160        -1.484092        -1.071305
 C         2.949618        -0.868780         0.147020
 C         3.257690         1.300191         0.909191
 O         1.900058         0.865412         1.338953
 H        -0.522289        -0.152978        -0.147795
 H        -0.036055        -1.696340         0.231041
 H        -0.350042        -0.588289         1.440595
 H         1.675411        -0.251718        -1.909209
 H         1.352178         1.551561        -1.234561
 H         4.550570         0.146609        -2.116376
 H         5.237401        -0.331546        -0.602793
 H         3.404166        -1.198641         1.173133
 H         3.970612         1.041018         1.644705
 H         3.254468         2.389956         1.102401
