19
Iteration:  1550
 C         0.165636        -0.784298         0.565958
 C         1.543364        -0.166162         0.298706
 C         1.939069         0.278922        -1.177283
 C         3.248820         0.472985        -0.411315
 C         4.429103        -0.262743        -0.857297
 O         3.759100        -1.578481        -0.529388
 C         2.930187        -0.853117         0.393454
 C         2.994763         1.576893         0.408300
 O         1.688603         1.174276         0.916190
 H        -0.735430        -0.102373         0.565705
 H         0.077288        -1.469900        -0.309401
 H         0.235081        -1.323822         1.573075
 H         1.915117        -0.627061        -1.844713
 H         1.488172         1.221642        -1.530273
 H         4.648102        -0.382320        -1.927364
 H         5.390757        -0.163145        -0.389738
 H         3.307435        -1.038724         1.399572
 H         3.680117         1.764114         1.369362
 H         2.973737         2.623930        -0.174578
