19
Iteration:  4610
 C         0.041232        -0.567438         0.505609
 C         1.529981        -0.076812         0.278564
 C         1.962415         0.944911        -0.704897
 C         3.341967         0.514713        -0.275965
 C         4.191701         0.113854        -1.390871
 O         3.363095        -1.098009        -1.547925
 C         2.813092        -0.908342        -0.164126
 C         3.446581         0.775004         1.284824
 O         2.027220         0.253272         1.611478
 H        -0.487201        -0.862207        -0.510033
 H         0.146153        -1.554170         1.108731
 H        -0.536093         0.090476         1.165365
 H         1.728081         0.790285        -1.673782
 H         1.737898         1.992609        -0.388357
 H         4.210517         0.659701        -2.300957
 H         5.153675        -0.125926        -1.093252
 H         3.262880        -1.686515         0.509661
 H         4.211500         0.097951         1.605706
 H         3.557952         1.736690         1.714470
