19
Iteration:   244
 C         0.274052        -0.819973         0.758091
 C         1.467449        -0.300586         0.075802
 C         2.160007        -0.518555        -1.241858
 C         3.319977         0.345414        -0.591056
 C         4.689402        -0.410077        -0.351692
 O         3.963826        -1.277092         0.717090
 C         2.887017        -0.255138         0.720968
 C         2.585718         1.739461        -0.683107
 O         1.384021         1.281062         0.094006
 H        -0.750461        -0.712094         0.283866
 H         0.364491        -1.835425         1.150146
 H         0.296438        -0.119823         1.612033
 H         2.424861        -1.544812        -1.443730
 H         1.731073        -0.111042        -2.178490
 H         5.248632        -0.933168        -1.103515
 H         5.379720         0.318034         0.196285
 H         2.956571         0.290339         1.678675
 H         3.119532         2.522256        -0.196528
 H         2.213546         1.891729        -1.646323
