19
Iteration:  1680charge 0 multiplicity 1
 C         0.194550        -0.851862         0.627410
 C         1.447901        -0.187500         0.084972
 C         2.030601         0.430062        -1.218837
 C         3.333463         0.559945        -0.448702
 C         4.443126        -0.424615        -0.988525
 O         3.683599        -1.612901        -0.572342
 C         2.874822        -0.700549         0.398268
 C         2.937037         1.700525         0.587303
 O         1.782279         0.979683         1.061939
 H         0.485435        -1.833432         0.919930
 H        -0.074304        -0.154990         1.404452
 H        -0.669211        -0.975358        -0.031295
 H         2.071692        -0.295820        -2.007112
 H         1.477367         1.391797        -1.587495
 H         4.592072        -0.531528        -2.074031
 H         5.378653        -0.362905        -0.378804
 H         3.236016        -0.690129         1.486562
 H         3.679893         1.814589         1.353822
 H         2.388455         2.635123         0.142505
