19
Iteration:  2075
 C         0.134360        -0.757419         0.473947
 C         1.492654        -0.164166         0.240664
 C         1.861315         0.494056        -1.032248
 C         3.273690         0.544478        -0.400204
 C         4.425901        -0.282190        -1.007992
 O         3.619587        -1.515766        -0.924355
 C         2.945843        -0.813168         0.265690
 C         3.121871         1.461730         0.705580
 O         1.831274         0.923928         1.262942
 H        -0.685380        -0.165466        -0.046168
 H         0.054167        -1.724732        -0.005666
 H        -0.137301        -0.787824         1.527279
 H         1.876290        -0.293062        -1.830844
 H         1.474079         1.480643        -1.301427
 H         4.739839        -0.092815        -2.027314
 H         5.243667        -0.261574        -0.298338
 H         3.285564        -1.069447         1.282304
 H         4.044754         1.249649         1.430364
 H         2.978664         2.513745         0.469900
