19
Iteration:  1465
 C         0.081117        -0.891368         0.555263
 C         1.442291        -0.168851         0.263129
 C         1.920935         0.260867        -1.214570
 C         3.302407         0.438731        -0.459436
 C         4.514630        -0.360868        -0.889774
 O         3.842040        -1.564497        -0.466383
 C         2.864464        -0.685839         0.495802
 C         3.099051         1.658938         0.387190
 O         1.647612         1.185198         0.939251
 H         0.158256        -1.680200         1.292632
 H        -0.767519        -0.238458         0.758338
 H        -0.218155        -1.371136        -0.418814
 H         1.907861        -0.516826        -1.907930
 H         1.516011         1.132937        -1.748812
 H         4.714160        -0.522671        -1.998354
 H         5.461734        -0.295807        -0.284472
 H         3.155429        -0.793475         1.521563
 H         3.762584         1.956614         1.266042
 H         2.934512         2.565525        -0.126631
