19
Iteration:  2726charge 0 multiplicity 1
 C         0.056983        -0.883441         0.476188
 C         1.458253        -0.069473         0.318720
 C         1.909365         0.773953        -0.914875
 C         3.375471         0.416030        -0.289599
 C         4.368525        -0.141122        -1.243617
 O         3.509973        -1.389569        -1.205504
 C         2.870984        -0.950907         0.098103
 C         3.261471         1.267072         0.973359
 O         1.904404         0.839309         1.388917
 H        -0.929795        -0.284376         0.208750
 H         0.062915        -1.777458        -0.151802
 H        -0.087795        -1.041438         1.571201
 H         1.836346         0.322179        -1.789417
 H         1.669462         1.771919        -0.965475
 H         4.492623         0.384106        -2.158424
 H         5.305867        -0.377369        -0.794177
 H         3.421154        -1.354289         0.990101
 H         3.983354         0.995528         1.820433
 H         3.158114         2.398909         0.872430
