19
Iteration:  3543
 C         0.187192        -0.611095         0.518331
 C         1.520183        -0.124993         0.261827
 C         1.961955         0.956615        -0.774928
 C         3.366721         0.584859        -0.242808
 C         4.174068        -0.007371        -1.409458
 O         3.377971        -1.149332        -1.489835
 C         2.867096        -0.892034        -0.147662
 C         3.311557         0.832505         1.259389
 O         1.967283         0.310716         1.617399
 H         0.200114        -1.397682         1.280129
 H        -0.452058         0.357701         0.808862
 H        -0.392013        -1.137755        -0.326273
 H         1.923590         0.677930        -1.801961
 H         1.653489         2.039605        -0.604429
 H         4.188409         0.686429        -2.220750
 H         5.229410        -0.163477        -1.227559
 H         3.184669        -1.591093         0.625815
 H         4.062165         0.326682         1.796960
 H         3.366416         1.927425         1.606311
