19
Iteration:  2165charge 0 multiplicity 1
 C         0.109054        -0.783571         0.464370
 C         1.457756        -0.139582         0.270338
 C         1.926191         0.583497        -1.031133
 C         3.315686         0.487631        -0.377863
 C         4.360564        -0.250198        -1.062209
 O         3.613717        -1.532761        -1.004679
 C         2.914253        -0.913248         0.193926
 C         3.168351         1.522656         0.775385
 O         1.845208         0.926772         1.359098
 H         0.269276        -1.804127         0.127703
 H        -0.208351        -0.817753         1.487186
 H        -0.648814        -0.385319        -0.184378
 H         1.874339        -0.015907        -1.912728
 H         1.572783         1.679067        -1.103923
 H         4.694447        -0.125878        -2.122112
 H         5.173356        -0.317513        -0.394032
 H         3.223857        -1.442711         1.168206
 H         3.986669         1.484794         1.561201
 H         2.853802         2.534744         0.472091
