19
Iteration:  4945
 C         0.047053        -0.637256         0.515866
 C         1.410667        -0.126931         0.173287
 C         1.896351         1.015527        -0.660480
 C         3.344921         0.574690        -0.239537
 C         4.272759         0.041899        -1.322670
 O         3.426138        -1.131731        -1.574018
 C         2.708206        -0.882719        -0.222120
 C         3.429353         0.820983         1.266734
 O         2.152007         0.290241         1.643981
 H        -0.833130        -0.632460        -0.204513
 H         0.282721        -1.645447         0.817343
 H        -0.490090        -0.029537         1.366314
 H         1.753962         0.757783        -1.582067
 H         1.570620         1.986773        -0.401587
 H         4.333353         0.396390        -2.333600
 H         5.303407        -0.333014        -1.070933
 H         2.970995        -1.669876         0.342327
 H         4.242347         0.278800         1.799097
 H         3.463334         1.855154         1.566270
