19
Iteration:  1233
 C         0.153868        -0.820115         0.556599
 C         1.446594        -0.232584         0.147824
 C         2.031084         0.073181        -1.240743
 C         3.364390         0.442048        -0.373422
 C         4.556018        -0.432763        -0.891888
 O         3.825839        -1.545333        -0.173931
 C         2.831608        -0.650244         0.534853
 C         2.888123         1.765222         0.159943
 O         1.606055         1.194522         0.860535
 H         0.206060        -1.916250         0.543136
 H         0.022183        -0.568151         1.623810
 H        -0.556641        -0.325793        -0.044818
 H         2.261209        -0.676836        -1.969074
 H         1.565583         0.929122        -1.774331
 H         4.471810        -0.430159        -1.999446
 H         5.498878        -0.234730        -0.497972
 H         3.263630        -0.584885         1.497359
 H         3.460426         2.303982         1.001138
 H         2.790975         2.561429        -0.506230
