19
Iteration:  1270charge 0 multiplicity 1
 C         0.173851        -0.742883         0.572932
 C         1.512343        -0.198029         0.225664
 C         1.942988         0.040596        -1.266847
 C         3.235795         0.475914        -0.563810
 C         4.560104        -0.388875        -0.753899
 O         3.817773        -1.591364        -0.270724
 C         2.964109        -0.640403         0.475928
 C         2.960356         1.723548         0.301817
 O         1.563825         1.167057         0.834291
 H         0.060450        -1.352413         1.466451
 H        -0.442155         0.152393         0.643903
 H        -0.258274        -1.368384        -0.240085
 H         2.213339        -0.844291        -1.958125
 H         1.320443         0.796494        -1.721572
 H         4.960417        -0.595786        -1.763091
 H         5.456116        -0.127717        -0.205027
 H         3.277311        -0.376488         1.518827
 H         3.564651         1.759188         1.147827
 H         2.702396         2.690372        -0.237668
