19
Iteration:  3636
 C         0.195270        -0.780761         0.488328
 C         1.469951        -0.083707         0.183728
 C         1.972305         1.096842        -0.656223
 C         3.383220         0.518010        -0.221171
 C         4.208844         0.049007        -1.366657
 O         3.281297        -1.148434        -1.520561
 C         2.759088        -0.925582        -0.131040
 C         3.379079         0.836546         1.250457
 O         2.035539         0.379109         1.570037
 H        -0.616856        -0.176544         0.915440
 H        -0.099048        -1.197412        -0.387933
 H         0.382854        -1.522263         1.168395
 H         1.881932         1.251191        -1.841349
 H         1.770695         2.146795        -0.241860
 H         4.406940         0.625869        -2.307068
 H         5.185879        -0.404428        -1.107104
 H         3.051748        -1.824612         0.455970
 H         4.097685         0.109154         1.889840
 H         3.603860         1.953359         1.646428
