19
Iteration:  4845charge 0 multiplicity 1
 C         0.179317        -0.774423         0.425505
 C         1.541119        -0.047610         0.246644
 C         1.931699         1.151494        -0.581041
 C         3.429821         0.590410        -0.171355
 C         4.169027        -0.030538        -1.358258
 O         3.216244        -1.169499        -1.582701
 C         2.815093        -0.863359        -0.248924
 C         3.452531         0.814625         1.346765
 O         2.054439         0.346233         1.550215
 H         0.040144        -1.530459        -0.409179
 H         0.020834        -1.447808         1.375966
 H        -0.950906        -0.266238         0.329346
 H         1.623598         1.180600        -1.568452
 H         1.605498         2.067804        -0.178059
 H         4.261571         0.484131        -2.333551
 H         5.193349        -0.520411        -1.066703
 H         3.172983        -1.716921         0.377010
 H         4.136657         0.171371         1.896356
 H         3.497017         1.843268         1.735482
