19
Iteration:  4928
 C         0.017396        -0.604985         0.586410
 C         1.497493        -0.142175         0.303227
 C         1.946799         1.052501        -0.631790
 C         3.354087         0.506260        -0.192746
 C         4.289255         0.040730        -1.381410
 O         3.375630        -1.124430        -1.571879
 C         2.804762        -0.932819        -0.237921
 C         3.399792         0.899100         1.199418
 O         2.045473         0.190754         1.524912
 H        -0.502336        -0.525108        -0.361191
 H        -0.179547        -1.595269         1.033684
 H        -0.449151         0.095132         1.254328
 H         1.725404         0.892531        -1.853726
 H         1.687491         2.120234        -0.338405
 H         4.399912         0.853148        -2.145184
 H         5.207428        -0.281674        -0.912404
 H         3.309279        -1.662232         0.633551
 H         4.205761         0.392166         1.787285
 H         3.299578         1.990975         1.458726
