19
Iteration:  2046
 C         0.172470        -0.688536         0.600486
 C         1.522245        -0.167604         0.133761
 C         1.966754         0.489032        -1.169722
 C         3.366925         0.610190        -0.327609
 C         4.424202        -0.368401        -1.118954
 O         3.592893        -1.509368        -0.829138
 C         2.909914        -0.798704         0.304011
 C         2.979106         1.588206         0.795979
 O         1.825625         0.749698         1.191450
 H        -0.419300         0.155777         0.940536
 H        -0.316771        -1.168506        -0.217744
 H         0.204927        -1.389641         1.422782
 H         2.147443        -0.197119        -1.949946
 H         1.558470         1.543361        -1.446766
 H         4.344629        -0.162530        -2.235360
 H         5.459395        -0.418250        -0.712038
 H         3.105349        -1.202488         1.366567
 H         3.702270         1.595729         1.509059
 H         2.576730         2.601692         0.473915
