19
Iteration:   992
 C         0.139005        -0.818261         0.632524
 C         1.487951        -0.198316         0.158603
 C         1.986244        -0.088148        -1.247727
 C         3.359634         0.445724        -0.492464
 C         4.563528        -0.405070        -0.691672
 O         3.823798        -1.538046        -0.049148
 C         3.013918        -0.600850         0.617863
 C         2.882096         1.809588         0.056398
 O         1.507089         1.226648         0.580692
 H        -0.416800        -1.368418        -0.106230
 H         0.299150        -1.496628         1.434342
 H        -0.544022        -0.080726         1.067980
 H         2.115632        -0.999974        -1.877494
 H         1.505963         0.733974        -1.767676
 H         4.877142        -0.669477        -1.754016
 H         5.503223        -0.027883        -0.226920
 H         3.251957        -0.328252         1.679940
 H         3.377800         2.195194         0.923914
 H         2.702623         2.475236        -0.711482
