19
Iteration:  1064
 C         0.127419        -0.843581         0.574868
 C         1.452629        -0.244047         0.109797
 C         1.985569         0.039649        -1.322101
 C         3.317631         0.472047        -0.506020
 C         4.540653        -0.542941        -0.756168
 O         3.859506        -1.548252        -0.018795
 C         3.054978        -0.498936         0.598708
 C         2.796103         1.827522         0.097472
 O         1.596587         1.212075         0.737999
 H         0.418813        -1.443784         1.467142
 H        -0.528876        -0.043322         0.958882
 H        -0.466520        -1.512127        -0.138144
 H         1.999910        -0.913174        -1.985182
 H         1.665645         0.907008        -1.843594
 H         4.851720        -0.839305        -1.729201
 H         5.456997        -0.307663        -0.238080
 H         3.375357        -0.506198         1.615463
 H         3.427409         2.092523         0.961388
 H         2.360267         2.617320        -0.561370
