19
Iteration:   951
 C         0.139007        -0.787653         0.596474
 C         1.442549        -0.176886         0.167382
 C         2.020676        -0.128016        -1.333801
 C         3.301589         0.452582        -0.503107
 C         4.570364        -0.441246        -0.751853
 O         3.928308        -1.532789         0.046702
 C         2.907686        -0.511468         0.619077
 C         2.836611         1.804615         0.039012
 O         1.572266         1.196483         0.657350
 H        -0.829188        -0.263276         0.386764
 H         0.054771        -1.816611         0.122370
 H         0.227167        -0.819496         1.710286
 H         2.222671        -1.115815        -1.651675
 H         1.350318         0.510233        -1.977365
 H         4.902848        -0.735322        -1.760820
 H         5.464327        -0.207293        -0.173911
 H         3.236094        -0.322364         1.681273
 H         3.447450         2.321902         0.793657
 H         2.451493         2.474955        -0.819203
