19
Iteration:  3927
 C         0.177763        -0.703118         0.373106
 C         1.596150        -0.183162         0.372942
 C         1.935130         1.017783        -0.658702
 C         3.390267         0.614459        -0.219778
 C         4.237351        -0.044920        -1.360646
 O         3.155798        -1.044419        -1.564538
 C         2.806358        -0.916292        -0.182757
 C         3.406293         0.916468         1.278678
 O         2.047883         0.269454         1.574005
 H        -0.127383        -0.719129        -0.628290
 H        -0.058957        -1.641706         0.903617
 H        -0.289901         0.104880         0.961724
 H         1.596130         0.632413        -1.759498
 H         1.649147         2.128960        -0.227591
 H         4.404641         0.559297        -2.243102
 H         5.203462        -0.496555        -0.968897
 H         3.197384        -1.661237         0.522822
 H         4.217779         0.324044         1.921809
 H         3.506106         1.928530         1.682862
