19
Iteration:  3133
 C         0.123184        -0.638651         0.560029
 C         1.516506        -0.199015         0.279885
 C         1.953865         0.789767        -0.812912
 C         3.371161         0.487016        -0.224643
 C         4.298511        -0.048079        -1.237301
 O         3.391082        -1.252015        -1.384354
 C         2.850679        -0.919822        -0.084080
 C         3.272807         1.122629         1.090147
 O         1.968680         0.553681         1.459758
 H         0.006917        -1.684668         0.346514
 H        -0.203534        -0.521092         1.602098
 H        -0.471010        -0.174052        -0.189503
 H         1.922286         0.321701        -1.876547
 H         1.637288         1.922191        -0.816991
 H         4.326334         0.531550        -2.199435
 H         5.355094        -0.357907        -0.919084
 H         3.035623        -1.729699         0.635680
 H         3.926732         0.767240         1.846855
 H         3.222700         2.147298         1.067190
