19
Iteration:  1404
 C         0.088578        -0.787826         0.597561
 C         1.513774        -0.229958         0.179446
 C         2.045999         0.271953        -1.234052
 C         3.317663         0.432527        -0.456228
 C         4.493108        -0.382592        -0.907596
 O         3.774100        -1.570945        -0.344825
 C         2.977025        -0.730160         0.456284
 C         2.869370         1.699839         0.396650
 O         1.660947         1.125596         0.878938
 H        -0.293437        -1.574071        -0.060209
 H         0.267173        -1.313015         1.551636
 H        -0.622375         0.039883         0.677582
 H         2.171807        -0.576541        -1.885773
 H         1.703569         1.214461        -1.767085
 H         4.653053        -0.462311        -1.954896
 H         5.427442        -0.189024        -0.360195
 H         3.203106        -0.572591         1.554548
 H         3.512772         1.932576         1.159458
 H         2.507834         2.521347        -0.276072
