19
Iteration:   363
 C         0.222546        -0.734226         0.681579
 C         1.515254        -0.220459         0.150630
 C         2.125492        -0.500187        -1.204777
 C         3.348975         0.344936        -0.593204
 C         4.700424        -0.427186        -0.407913
 O         3.964067        -1.299670         0.543027
 C         2.989169        -0.269172         0.746895
 C         2.614359         1.669576        -0.521107
 O         1.307444         1.229625         0.148271
 H         0.158119        -0.544765         1.794350
 H        -0.579583        -0.183369         0.240346
 H         0.052019        -1.814287         0.562658
 H         2.473014        -1.510104        -1.386898
 H         1.670675        -0.112942        -2.131681
 H         5.071876        -0.951246        -1.250704
 H         5.479558         0.174795         0.119118
 H         3.059603         0.293366         1.658452
 H         3.091596         2.439733         0.087102
 H         2.139174         2.163785        -1.404383
