19
Iteration:  3094charge 0 multiplicity 1
 C         0.139616        -0.692876         0.556477
 C         1.478801        -0.120264         0.258040
 C         1.863760         0.920102        -0.817164
 C         3.346285         0.572188        -0.292666
 C         4.339859        -0.128557        -1.225572
 O         3.475333        -1.337702        -1.295804
 C         2.800712        -0.902949        -0.118189
 C         3.277795         1.116940         1.070698
 O         1.980595         0.483782         1.447156
 H        -0.107980        -1.331923        -0.350161
 H         0.006364        -1.227146         1.524292
 H        -0.545896         0.203306         0.710788
 H         1.656365         0.521216        -1.756720
 H         1.549009         1.869395        -0.712807
 H         4.348897         0.246220        -2.240587
 H         5.300308        -0.262937        -0.789440
 H         3.307856        -1.442353         0.689329
 H         4.213790         0.797510         1.620927
 H         3.170135         2.284413         1.257907
