19
Iteration:  3055
 C         0.091406        -0.778913         0.417922
 C         1.528925        -0.170936         0.300216
 C         1.967696         0.803873        -0.825775
 C         3.363531         0.546388        -0.246005
 C         4.274191        -0.126208        -1.307628
 O         3.368999        -1.291599        -1.308030
 C         2.850001        -0.901290        -0.035081
 C         3.344731         1.190490         1.151494
 O         1.979855         0.627231         1.490298
 H        -0.468042        -0.554621        -0.512093
 H         0.102051        -1.816282         0.649416
 H        -0.470171        -0.350406         1.295881
 H         1.828087         0.291987        -1.866488
 H         1.450818         1.934241        -0.902969
 H         4.143920         0.443399        -2.250673
 H         5.350679        -0.522669        -1.276397
 H         3.274219        -1.408470         0.870715
 H         4.011698         0.809762         1.923893
 H         3.305942         2.219211         1.251251
