19
Iteration:  1271charge 0 multiplicity 1
 C         0.169734        -0.748482         0.572791
 C         1.517620        -0.201850         0.227364
 C         1.943877         0.039395        -1.261863
 C         3.237489         0.473260        -0.562767
 C         4.562071        -0.380676        -0.751015
 O         3.816619        -1.593630        -0.276183
 C         2.956536        -0.626129         0.471304
 C         2.956225         1.712475         0.304967
 O         1.569721         1.168458         0.828550
 H         0.053421        -1.317269         1.515668
 H        -0.439320         0.165581         0.616198
 H        -0.245374        -1.396365        -0.261648
 H         2.189862        -0.835824        -1.930023
 H         1.300457         0.806955        -1.723437
 H         4.940123        -0.619547        -1.755450
 H         5.495793        -0.147742        -0.192540
 H         3.265252        -0.368609         1.526748
 H         3.589058         1.777313         1.149381
 H         2.701576         2.704974        -0.222854
