19
Iteration:  3329charge 0 multiplicity 1
 C         0.157642        -0.794297         0.399122
 C         1.530030        -0.163594         0.272504
 C         1.915225         0.916740        -0.760170
 C         3.372054         0.488005        -0.258455
 C         4.282407        -0.055457        -1.343099
 O         3.286558        -1.204754        -1.377524
 C         2.766930        -0.895886        -0.016713
 C         3.368088         1.031998         1.186418
 O         2.043851         0.577906         1.504962
 H        -0.509793        -0.109666         1.021723
 H        -0.263963        -1.169231        -0.672000
 H         0.178856        -1.819409         0.921602
 H         1.810323         0.653497        -1.717643
 H         1.617088         1.911171        -0.487521
 H         4.303924         0.596197        -2.206191
 H         5.273610        -0.274397        -0.997377
 H         3.088445        -1.629543         0.748961
 H         4.211107         0.490224         1.760304
 H         3.447258         2.229460         1.389484
