19
Iteration:  3008charge 0 multiplicity 1
 C         0.154781        -0.759575         0.509177
 C         1.514896        -0.133689         0.200249
 C         1.907645         0.841569        -0.940277
 C         3.399863         0.575617        -0.220978
 C         4.236952        -0.184398        -1.267279
 O         3.379425        -1.265938        -1.291036
 C         2.862262        -0.888046         0.043220
 C         3.302415         1.204100         1.120517
 O         1.989348         0.535327         1.454372
 H        -0.645339        -0.016804         0.090677
 H         0.062171        -1.733269        -0.058561
 H        -0.137784        -1.002954         1.625867
 H         1.883064         0.538358        -1.930322
 H         1.447998         1.929706        -0.849900
 H         4.406303         0.232775        -2.279718
 H         5.260219        -0.426447        -0.814459
 H         3.154466        -1.674647         0.778688
 H         4.099204         0.878082         1.806047
 H         3.179206         2.274518         1.240019
