19
Iteration:  4382charge 0 multiplicity 1
 C         0.184770        -0.701597         0.379629
 C         1.551353        -0.068821         0.253403
 C         1.910681         1.025849        -0.660949
 C         3.447722         0.519764        -0.201916
 C         4.203837         0.022286        -1.422543
 O         3.181685        -1.076867        -1.500832
 C         2.784379        -0.868428        -0.120129
 C         3.423149         0.809540         1.327018
 O         2.056600         0.288931         1.573923
 H        -0.507361        -0.529376        -0.430878
 H         0.255740        -1.764394         0.539216
 H        -0.274163        -0.333660         1.215107
 H         1.773323         0.549137        -1.841752
 H         1.612080         2.050249        -0.368620
 H         4.322619         0.755827        -2.249836
 H         5.201170        -0.317868        -1.084199
 H         3.172334        -1.694041         0.470343
 H         4.180557         0.315750         1.875962
 H         3.530235         1.888390         1.606122
