19
Iteration:  1282charge 0 multiplicity 1
 C         0.128679        -0.787726         0.574206
 C         1.492484        -0.234612         0.195929
 C         1.914790         0.071226        -1.208891
 C         3.359042         0.489344        -0.513581
 C         4.564446        -0.358561        -0.782346
 O         3.786091        -1.555969        -0.290767
 C         2.930721        -0.556468         0.500815
 C         2.883202         1.615464         0.333950
 O         1.671615         1.174359         0.756107
 H         0.065831        -0.888035         1.656347
 H        -0.590270        -0.007626         0.266100
 H        -0.045261        -1.729808        -0.050489
 H         1.864620        -0.932781        -1.707862
 H         1.382624         0.835952        -1.823445
 H         4.809274        -0.516601        -1.830214
 H         5.356460        -0.177464        -0.033235
 H         3.321680        -0.630638         1.553814
 H         3.634044         1.809097         1.041232
 H         2.755381         2.665320        -0.152082
