19
Iteration:  3084
 C         0.193130        -0.666713         0.508138
 C         1.552488        -0.134586         0.227851
 C         1.868754         0.882372        -0.918304
 C         3.271361         0.600826        -0.336309
 C         4.266714        -0.140077        -1.228531
 O         3.439713        -1.262744        -1.259621
 C         2.822635        -0.927770         0.002846
 C         3.314924         1.094999         1.080419
 O         1.990676         0.472271         1.488061
 H        -0.393631        -1.118529        -0.405085
 H         0.318523        -1.505842         1.233095
 H        -0.518391         0.231975         0.801401
 H         1.686320         0.549201        -1.842192
 H         1.482655         1.819239        -0.737812
 H         4.392503         0.319688        -2.212528
 H         5.264933        -0.389661        -0.861737
 H         3.225902        -1.411975         0.914069
 H         4.130575         0.583699         1.671756
 H         3.200316         2.234523         1.307057
