19
Iteration:  3488
 C         0.155760        -0.794971         0.369302
 C         1.527048        -0.118163         0.331882
 C         1.938495         0.944089        -0.610741
 C         3.353934         0.489997        -0.273737
 C         4.364452        -0.051617        -1.306311
 O         3.200158        -1.157364        -1.575253
 C         2.791364        -0.935939        -0.159569
 C         3.355258         1.013409         1.210045
 O         2.060001         0.480134         1.632300
 H         0.233813        -1.827167         0.165026
 H        -0.307611        -0.696433         1.477883
 H        -0.539560        -0.253585        -0.340199
 H         1.693138         0.832792        -1.703035
 H         1.783294         2.056060        -0.498748
 H         4.594121         0.575925        -2.145463
 H         5.169102        -0.504082        -0.729222
 H         3.161491        -1.634893         0.594963
 H         4.148119         0.664910         1.867357
 H         3.216733         2.234577         1.221786
