19
Iteration:  2837
 C         0.108839        -0.707628         0.547492
 C         1.541627        -0.200855         0.197971
 C         1.998310         0.771235        -0.937534
 C         3.384697         0.619179        -0.336425
 C         4.309017        -0.143190        -1.250860
 O         3.390285        -1.327707        -1.202669
 C         2.892485        -0.877633         0.031183
 C         3.204883         1.196242         1.092983
 O         1.908872         0.631386         1.400988
 H         0.215335        -1.860228         0.615319
 H        -0.050896        -0.580529         1.635268
 H        -0.756201        -0.451090        -0.091762
 H         1.954234         0.248198        -1.797215
 H         1.695456         1.694270        -1.086905
 H         4.398508         0.138046        -2.274981
 H         5.264777        -0.365757        -0.826500
 H         3.342331        -1.411601         0.906815
 H         3.939083         0.693468         1.822612
 H         3.084541         2.329114         1.339815
