19
Iteration:  2109
 C         0.137730        -0.867937         0.525739
 C         1.445594        -0.178254         0.143144
 C         1.930254         0.616379        -1.030806
 C         3.344296         0.456756        -0.311990
 C         4.378206        -0.248877        -1.128392
 O         3.664407        -1.542427        -0.862139
 C         2.888270        -0.871243         0.223190
 C         3.131945         1.433028         0.799196
 O         1.795245         1.059794         1.229351
 H        -0.554022        -0.856636        -0.365252
 H         0.278581        -1.846870         0.906146
 H        -0.316233        -0.309027         1.317410
 H         1.990671         0.090585        -1.964998
 H         1.523184         1.632245        -1.318286
 H         4.317381        -0.068083        -2.218388
 H         5.392015        -0.325510        -0.843411
 H         3.083111        -1.294863         1.258368
 H         3.932578         1.308387         1.671420
 H         3.079650         2.495045         0.604840
