19
Iteration:  3435
 C         0.113256        -0.675299         0.543259
 C         1.515077        -0.103030         0.278234
 C         1.917207         0.997912        -0.693946
 C         3.367994         0.499508        -0.250869
 C         4.239335        -0.011404        -1.378522
 O         3.452634        -1.261636        -1.455156
 C         2.800796        -0.954089        -0.143329
 C         3.337573         0.948303         1.201436
 O         1.976095         0.427506         1.517861
 H        -0.148720        -1.098526        -0.392344
 H         0.047282        -1.380084         1.204370
 H        -0.536786         0.195002         0.710823
 H         1.712000         0.816710        -1.800041
 H         1.614261         2.124010        -0.446965
 H         4.091048         0.655231        -2.244784
 H         5.356499        -0.187999        -1.119711
 H         3.201856        -1.548349         0.697063
 H         4.084927         0.437260         1.907182
 H         3.379005         2.077255         1.359849
