19
Iteration:  3860charge 0 multiplicity 1
 C         0.054754        -0.615581         0.527320
 C         1.453044        -0.154267         0.224686
 C         1.867107         1.090691        -0.641590
 C         3.349699         0.495434        -0.224949
 C         4.257937         0.079425        -1.415272
 O         3.393385        -1.115048        -1.587750
 C         2.828841        -0.930780        -0.242896
 C         3.429507         0.758937         1.309625
 O         2.047369         0.304224         1.622107
 H        -0.205497        -1.560865         0.251223
 H         0.080663        -0.702955         1.645754
 H        -0.794880        -0.048877         0.185022
 H         1.607836         0.876692        -1.873250
 H         1.667692         2.196458        -0.177654
 H         4.232733         0.754200        -2.296678
 H         5.350826        -0.134746        -1.155189
 H         3.247758        -1.666053         0.468074
 H         4.259782         0.019439         1.811499
 H         3.763547         1.725626         1.697066
