19
Iteration:  3080
 C         0.182072        -0.659290         0.476110
 C         1.550083        -0.153698         0.204129
 C         1.876306         0.859225        -0.915431
 C         3.274222         0.600202        -0.347633
 C         4.248267        -0.107610        -1.253269
 O         3.413834        -1.267921        -1.258401
 C         2.847570        -0.905794         0.062269
 C         3.317032         1.081033         1.089405
 O         2.004421         0.483008         1.506606
 H        -0.307477        -0.985156        -0.359089
 H         0.360789        -1.492874         1.164344
 H        -0.414430         0.042741         0.929395
 H         1.715339         0.495058        -2.056050
 H         1.432283         1.885836        -0.788725
 H         4.497236         0.343246        -2.238654
 H         5.198803        -0.404925        -0.813977
 H         3.121111        -1.492589         0.939996
 H         4.037140         0.599025         1.737231
 H         3.275433         2.173930         1.284472
