19
Iteration:  2784charge 0 multiplicity 1
 C         0.082534        -0.736312         0.469044
 C         1.489434        -0.132607         0.267322
 C         1.983179         0.756305        -0.914988
 C         3.346301         0.548941        -0.374206
 C         4.310901        -0.155986        -1.250578
 O         3.517090        -1.356089        -1.177880
 C         2.840630        -0.928757         0.030647
 C         3.246826         1.268978         0.988763
 O         1.931816         0.627864         1.531620
 H        -0.414816        -0.983688        -0.477006
 H         0.080128        -1.557200         1.238749
 H        -0.526160         0.035967         0.996917
 H         1.820190         0.195134        -1.900502
 H         1.563837         1.762897        -0.929679
 H         4.464490         0.202753        -2.272793
 H         5.284531        -0.340902        -0.805526
 H         3.235688        -1.411007         0.858380
 H         4.008041         1.215173         1.707028
 H         2.863094         2.259559         0.894727
