19
Iteration:  3956charge 0 multiplicity 1
 C         0.072591        -0.784583         0.345530
 C         1.422070        -0.117359         0.249435
 C         2.034182         1.099296        -0.552674
 C         3.371993         0.476268        -0.197707
 C         4.146196         0.044681        -1.421367
 O         3.349046        -1.180399        -1.547630
 C         2.725197        -0.854584        -0.153633
 C         3.413703         0.826627         1.264828
 O         2.150209         0.382230         1.637258
 H        -0.570781        -0.741505        -0.610895
 H         0.208923        -1.842888         0.624665
 H        -0.471156        -0.297873         1.148645
 H         1.845841         1.001268        -1.704953
 H         1.859781         2.087339        -0.160711
 H         4.054515         0.819556        -2.261697
 H         5.177020        -0.080261        -1.180208
 H         3.091577        -1.518441         0.726801
 H         4.128865         0.323013         1.862199
 H         3.612133         1.907189         1.264628
