19
Iteration:  3170
 C         0.111171        -0.783547         0.433151
 C         1.531987        -0.130135         0.272860
 C         1.955859         0.902689        -0.770445
 C         3.389767         0.585500        -0.263481
 C         4.250932        -0.143488        -1.364262
 O         3.369493        -1.299847        -1.295040
 C         2.837869        -0.843982        -0.061241
 C         3.304172         1.080775         1.148706
 O         1.980325         0.553986         1.543502
 H         0.034660        -1.843883         0.714085
 H        -0.524425        -0.154128         1.002081
 H        -0.349723        -0.725386        -0.556157
 H         1.901217         0.573905        -1.923827
 H         1.595063         1.911081        -0.601014
 H         4.351951         0.429019        -2.318988
 H         5.234873        -0.461860        -1.060630
 H         3.258731        -1.477466         0.732450
 H         4.121439         0.620526         1.732624
 H         3.351565         2.223782         1.124418
