19
Iteration:  3056charge 0 multiplicity 1
 C         0.090763        -0.778831         0.420053
 C         1.526909        -0.171012         0.288355
 C         1.966572         0.801206        -0.824306
 C         3.363644         0.549543        -0.242802
 C         4.277810        -0.117200        -1.305060
 O         3.360201        -1.297368        -1.302681
 C         2.849367        -0.894580        -0.037772
 C         3.343681         1.184638         1.155034
 O         1.987087         0.625172         1.490005
 H        -0.459025        -0.567166        -0.460982
 H         0.094272        -1.817912         0.651776
 H        -0.447316        -0.322359         1.231106
 H         1.833160         0.258487        -1.889410
 H         1.447990         1.913863        -0.910620
 H         4.157755         0.431944        -2.263903
 H         5.341336        -0.486452        -1.254660
 H         3.276918        -1.386543         0.860335
 H         4.038604         0.793721         1.897219
 H         3.291020         2.229391         1.260965
