19
Iteration:  2745
 C         0.232026        -0.744306         0.509126
 C         1.539615        -0.198806         0.222862
 C         1.943497         0.768746        -0.938128
 C         3.354884         0.601597        -0.310009
 C         4.272019        -0.194366        -1.244050
 O         3.496055        -1.415144        -1.162224
 C         2.834995        -0.889753         0.070211
 C         3.224049         1.237819         1.064998
 O         1.834609         0.746481         1.394820
 H        -0.565794        -0.471043        -0.158423
 H         0.301104        -1.819507         0.240081
 H        -0.046495        -0.509949         1.539957
 H         1.762783         0.339900        -1.989804
 H         1.515182         1.836308        -0.862408
 H         4.313784         0.088080        -2.335025
 H         5.325409        -0.263040        -0.845808
 H         3.154966        -1.508636         1.030727
 H         4.046540         0.841540         1.781900
 H         3.241577         2.371823         0.937308
