19
Iteration:  2656
 C         0.042271        -0.760158         0.499378
 C         1.434882        -0.144242         0.173002
 C         1.894542         0.775707        -0.963511
 C         3.306146         0.511315        -0.321713
 C         4.423445        -0.198443        -1.279161
 O         3.618346        -1.423392        -1.085525
 C         2.833924        -0.921176         0.108650
 C         3.244237         1.342378         0.994215
 O         1.921146         0.739950         1.448714
 H        -0.256616        -0.357915         1.436761
 H        -0.768677        -0.553357        -0.258375
 H         0.128922        -1.826846         0.736424
 H         1.647714         0.077650        -1.904389
 H         1.506997         1.860320        -0.978645
 H         4.328333         0.002410        -2.384561
 H         5.494996        -0.384932        -0.984294
 H         3.191742        -1.586051         1.045813
 H         4.056085         1.156190         1.777857
 H         3.045804         2.461260         0.735012
