19
Iteration:  3639charge 0 multiplicity 1
 C         0.212380        -0.749199         0.496027
 C         1.485191        -0.088736         0.189847
 C         1.955732         1.097057        -0.626324
 C         3.376750         0.505155        -0.207075
 C         4.206807         0.050469        -1.354052
 O         3.288137        -1.155523        -1.528722
 C         2.743768        -0.945452        -0.174264
 C         3.376173         0.828001         1.266605
 O         2.043821         0.412782         1.559744
 H        -0.681294        -0.173123         0.709144
 H        -0.134858        -1.366367        -0.499426
 H         0.453572        -1.553169         1.230100
 H         1.863026         1.185892        -1.769326
 H         1.758320         2.017129        -0.178414
 H         4.345502         0.657612        -2.327630
 H         5.219818        -0.321254        -1.074039
 H         2.995121        -1.813718         0.470595
 H         4.153129         0.163909         1.885674
 H         3.583869         1.897850         1.520559
