19
Iteration:   167
 C         0.165838        -0.750398         0.691969
 C         1.471092        -0.249633         0.134813
 C         2.216180        -0.524707        -1.151445
 C         3.363141         0.338603        -0.563684
 C         4.653159        -0.434853        -0.464489
 O         4.038599        -1.205296         0.788141
 C         2.954335        -0.185470         0.855309
 C         2.572842         1.647057        -0.730445
 O         1.333022         1.175185        -0.008526
 H         0.281095        -0.672173         1.775056
 H        -0.707696        -0.134075         0.393912
 H        -0.044761        -1.776387         0.393997
 H         2.558908        -1.563411        -1.227828
 H         1.709873        -0.224605        -2.062353
 H         4.855378        -1.064413        -1.288426
 H         5.536015         0.157354        -0.091557
 H         2.944686         0.422661         1.793008
 H         2.908433         2.464729        -0.173108
 H         2.410594         1.981687        -1.672005
