19
Iteration:   522
 C         0.145727        -0.742394         0.714824
 C         1.533295        -0.290070         0.173954
 C         2.197461        -0.359253        -1.300127
 C         3.280228         0.386960        -0.622530
 C         4.624386        -0.474616        -0.480360
 O         3.895224        -1.273986         0.427496
 C         2.950536        -0.325488         0.711319
 C         2.677622         1.754723        -0.389983
 O         1.439642         1.140252         0.290498
 H         0.365620        -1.599943         1.340855
 H        -0.303283         0.125223         1.325641
 H        -0.499247        -1.102605        -0.085013
 H         2.585588        -1.334856        -1.471190
 H         1.673012         0.036781        -2.163037
 H         4.973417        -0.965879        -1.457027
 H         5.496085         0.002250         0.042258
 H         3.069849         0.157277         1.719981
 H         3.188914         2.354629         0.447157
 H         2.335052         2.261361        -1.298720
