19
Iteration:  3189charge 0 multiplicity 1
 C         0.160904        -0.758166         0.388580
 C         1.481032        -0.055468         0.262162
 C         1.867393         1.028696        -0.711324
 C         3.320652         0.479803        -0.292663
 C         4.279925        -0.119690        -1.314091
 O         3.418215        -1.357393        -1.352984
 C         2.806902        -0.912796         0.016858
 C         3.373396         1.133170         1.116994
 O         2.005982         0.500852         1.502516
 H         0.485310        -1.469651         1.085987
 H        -0.761971        -0.219047         0.699599
 H        -0.080286        -1.235003        -0.484526
 H         1.563927         0.758188        -1.857825
 H         1.809382         2.149360        -0.434243
 H         4.165583         0.301587        -2.374557
 H         5.357273        -0.214310        -0.922290
 H         3.014501        -1.626144         0.820979
 H         4.045800         0.762408         1.821256
 H         3.286103         2.122956         1.212266
