19
Iteration:  3041
 C         0.151335        -0.759547         0.443304
 C         1.507755        -0.111104         0.341295
 C         1.943039         0.859123        -0.797045
 C         3.437310         0.458436        -0.224810
 C         4.260553        -0.150792        -1.401686
 O         3.416035        -1.294546        -1.368981
 C         2.874835        -0.955947         0.089771
 C         3.278632         1.194623         1.089423
 O         1.886520         0.650077         1.505163
 H        -0.508397        -0.462243        -0.509312
 H         0.326157        -1.841823         0.268788
 H        -0.519957        -0.491911         1.398964
 H         1.782262         0.605434        -1.767031
 H         1.705646         1.926650        -0.537544
 H         4.297489         0.358002        -2.381271
 H         5.325972        -0.347844        -1.032185
 H         3.232668        -1.830991         0.668192
 H         4.010157         0.872178         1.852938
 H         3.219148         2.283806         0.938373
