19
Iteration:   740charge 0 multiplicity 1
 C         0.241420        -0.879465         0.674614
 C         1.481210        -0.177227         0.156610
 C         2.089881        -0.284354        -1.287684
 C         3.286926         0.404836        -0.629542
 C         4.553757        -0.395083        -0.611106
 O         3.805937        -1.467353         0.241155
 C         2.929055        -0.437681         0.667416
 C         2.830545         1.743398        -0.077104
 O         1.506340         1.345120         0.388934
 H         0.054649        -0.643762         1.722334
 H        -0.623000        -0.612903         0.008720
 H         0.452759        -1.953376         0.613605
 H         2.249312        -1.344615        -1.321633
 H         1.632074         0.009088        -2.204068
 H         5.016116        -0.777083        -1.526762
 H         5.284563         0.000538         0.051067
 H         3.246873         0.104667         1.590150
 H         3.356267         2.181994         0.735212
 H         2.531788         2.494448        -0.898427
