19
Iteration:  4120charge 0 multiplicity 1
 C         0.074815        -0.686455         0.389799
 C         1.540031        -0.127503         0.314599
 C         1.934408         1.034347        -0.607629
 C         3.416368         0.449565        -0.175011
 C         4.274872         0.022990        -1.385568
 O         3.211607        -1.069944        -1.582673
 C         2.774467        -0.919613        -0.181351
 C         3.397493         0.925768         1.279975
 O         2.111306         0.270564         1.640563
 H        -0.117300        -0.751864        -0.777926
 H         0.114189        -1.786874         0.768972
 H        -0.723430        -0.020508         0.852584
 H         1.760859         0.828539        -1.686948
 H         1.778403         1.960524        -0.215030
 H         4.302326         0.756924        -2.280928
 H         5.281402        -0.435989        -1.155223
 H         3.118868        -1.682225         0.406506
 H         4.283641         0.666686         1.877657
 H         3.237660         2.037087         1.226182
