19
Iteration:  1046charge 0 multiplicity 1
 C         0.230041        -0.831661         0.646311
 C         1.546323        -0.199779         0.157706
 C         2.076591         0.016676        -1.287224
 C         3.356067         0.490389        -0.581109
 C         4.564174        -0.496777        -0.758889
 O         3.744734        -1.503540        -0.022920
 C         2.894962        -0.530304         0.566546
 C         2.802854         1.760047         0.137221
 O         1.568196         1.155350         0.674569
 H         0.205387        -1.771575         1.153678
 H        -0.327645        -0.178454         1.277069
 H        -0.375505        -0.968739        -0.255618
 H         2.355519        -0.940740        -1.773795
 H         1.328874         0.578620        -1.845272
 H         4.731486        -0.754819        -1.860742
 H         5.465076        -0.171429        -0.187011
 H         3.070508        -0.269372         1.630670
 H         3.473063         2.197760         1.011544
 H         2.570536         2.534101        -0.571897
