19
Iteration:  3498charge 0 multiplicity 1
 C         0.121911        -0.822192         0.393522
 C         1.447281        -0.181674         0.284067
 C         1.967496         1.067796        -0.622868
 C         3.352456         0.497816        -0.237866
 C         4.307402        -0.064507        -1.301294
 O         3.288365        -1.150877        -1.552376
 C         2.761534        -0.928404        -0.156224
 C         3.407684         1.006149         1.150935
 O         2.058982         0.486748         1.654954
 H         0.182743        -1.889880         0.222630
 H        -0.457906        -0.531237         1.473746
 H        -0.598805        -0.491851        -0.411528
 H         1.626973         0.750116        -1.641998
 H         1.700643         2.025728        -0.246305
 H         4.653517         0.342334        -2.235680
 H         5.210392        -0.450816        -0.877969
 H         3.262413        -1.641290         0.498012
 H         4.152152         0.630905         1.772629
 H         3.473000         2.160374         1.237032
