19
Iteration:  3643
 C         0.215968        -0.739677         0.481400
 C         1.507402        -0.097805         0.202223
 C         1.948478         1.086872        -0.608050
 C         3.365002         0.492863        -0.187567
 C         4.212454         0.042211        -1.351945
 O         3.296786        -1.155594        -1.539008
 C         2.727459        -0.955455        -0.221297
 C         3.392926         0.815131         1.288237
 O         2.047169         0.443091         1.548057
 H        -0.723999        -0.130669         0.568371
 H        -0.080764        -1.405126        -0.418318
 H         0.463509        -1.523159         1.285222
 H         1.812300         1.060636        -1.626389
 H         1.693888         2.033679        -0.062189
 H         4.226841         0.643030        -2.235479
 H         5.228389        -0.238992        -1.043251
 H         2.944716        -1.757480         0.493766
 H         4.116692         0.305318         1.801959
 H         3.530614         1.860916         1.406511
