19
Iteration:   398charge 0 multiplicity 1
 C         0.188160        -0.950785         0.777015
 C         1.456567        -0.290073         0.190586
 C         2.133460        -0.506367        -1.133965
 C         3.349393         0.438533        -0.610305
 C         4.607564        -0.385501        -0.516525
 O         3.922329        -1.304146         0.493215
 C         2.865283        -0.311375         0.812879
 C         2.770902         1.769074        -0.459560
 O         1.410390         1.361565         0.001104
 H        -0.503796        -0.071611         1.104935
 H        -0.280110        -1.539135        -0.031795
 H         0.539726        -1.693716         1.569973
 H         2.512567        -1.570238        -1.216703
 H         1.603859        -0.107427        -2.046217
 H         5.085821        -0.938277        -1.362870
 H         5.452396         0.064818         0.111721
 H         2.947583         0.084853         1.868749
 H         3.500441         2.358191         0.285736
 H         2.512527         2.533160        -1.347219
