19
Iteration:  1846
 C         0.158825        -0.803701         0.538724
 C         1.486355        -0.185164         0.218034
 C         1.905321         0.481801        -1.104348
 C         3.364031         0.498766        -0.302985
 C         4.422878        -0.408043        -1.109680
 O         3.704585        -1.550208        -0.718932
 C         2.923993        -0.796858         0.347302
 C         3.047331         1.655421         0.604881
 O         1.714278         1.009751         1.133874
 H        -0.563458        -0.840715        -0.256325
 H         0.363891        -1.794618         0.914079
 H        -0.349313        -0.235649         1.309374
 H         1.962459        -0.291492        -1.981101
 H         1.421628         1.405031        -1.422087
 H         4.612109        -0.351485        -2.237128
 H         5.434703        -0.557156        -0.562788
 H         3.428790        -1.132884         1.315474
 H         3.578787         1.683842         1.480576
 H         2.859925         2.638426         0.065626
