19
Iteration:  4293
 C         0.112961        -0.672648         0.546789
 C         1.454834        -0.105544         0.227591
 C         1.909952         1.067077        -0.663819
 C         3.431768         0.544585        -0.167220
 C         4.241180        -0.016894        -1.373565
 O         3.331052        -1.047040        -1.583004
 C         2.842200        -0.833750        -0.210125
 C         3.387354         0.708947         1.270712
 O         2.021092         0.317872         1.575510
 H        -0.159418        -1.293056        -0.307624
 H         0.281766        -1.199112         1.416838
 H        -0.555616         0.075901         0.592973
 H         1.690502         0.798444        -1.838943
 H         1.278681         1.990359        -0.341993
 H         4.271750         0.603614        -2.243862
 H         5.251460        -0.396913        -1.197291
 H         3.306398        -1.733707         0.481159
 H         4.064909         0.051252         1.726038
 H         3.525935         1.648336         1.819458
