19
Iteration:  3300
 C         0.157952        -0.688978         0.447299
 C         1.551602        -0.072756         0.279227
 C         1.909651         0.934774        -0.764724
 C         3.343182         0.672126        -0.347921
 C         4.264312        -0.117167        -1.365021
 O         3.373150        -1.331200        -1.347500
 C         2.832262        -0.825911        -0.054629
 C         3.331459         1.019413         1.194187
 O         1.984062         0.395696         1.535890
 H        -0.345367        -0.381738         1.325502
 H        -0.618208        -0.589107        -0.287167
 H         0.356926        -1.688128         0.535305
 H         1.723001         0.480174        -1.896050
 H         1.486145         1.962024        -0.744899
 H         4.285270         0.425236        -2.360680
 H         5.239421        -0.290218        -0.803883
 H         3.267400        -1.390632         0.767538
 H         4.095490         0.530142         1.664430
 H         3.264659         2.025137         1.680353
