19
Iteration:  3266
 C         0.072933        -0.651228         0.525069
 C         1.490823        -0.184767         0.203873
 C         1.957155         0.859558        -0.722650
 C         3.362545         0.451280        -0.198317
 C         4.224795         0.015706        -1.257744
 O         3.444245        -1.271531        -1.484798
 C         2.814676        -1.032523        -0.081901
 C         3.328327         1.172197         1.113922
 O         2.029907         0.506425         1.514925
 H        -0.159140        -0.415081         1.543056
 H        -0.680363        -0.182963        -0.163073
 H         0.036758        -1.663815         0.489113
 H         1.803659         0.662117        -1.906220
 H         1.542856         1.850686        -0.426853
 H         4.475002         0.688611        -2.157863
 H         5.264172        -0.352503        -0.963135
 H         3.106217        -1.806540         0.631292
 H         4.008903         0.827766         1.811304
 H         3.158738         2.240695         1.225256
