19
Iteration:  3660
 C         0.133882        -0.741647         0.432955
 C         1.497809        -0.148652         0.332026
 C         1.923755         1.020059        -0.571235
 C         3.399420         0.459610        -0.177408
 C         4.205310        -0.001017        -1.347665
 O         3.337719        -1.097174        -1.620173
 C         2.743485        -0.913495        -0.206590
 C         3.478714         0.902950         1.241914
 O         2.016833         0.416521         1.589441
 H        -0.508905         0.074816         0.154423
 H        -0.059702        -1.567936        -0.272330
 H        -0.152518        -1.001135         1.391562
 H         1.673684         0.780834        -1.713108
 H         1.606434         2.021289        -0.384383
 H         4.249028         0.777507        -2.197073
 H         5.233413        -0.403959        -1.276098
 H         3.165491        -1.778816         0.330757
 H         4.117642         0.227814         2.003226
 H         3.568251         2.002598         1.561217
