19
Iteration:  3246
 C         0.122805        -0.620058         0.545947
 C         1.571683        -0.208968         0.323441
 C         1.929092         0.773871        -0.806696
 C         3.374199         0.478080        -0.242478
 C         4.344981        -0.053238        -1.305950
 O         3.362971        -1.157398        -1.474606
 C         2.848243        -0.963347        -0.101660
 C         3.265119         1.042119         1.195805
 O         1.938248         0.562716         1.529759
 H        -0.246684        -0.446563         1.543556
 H        -0.476115        -0.032756        -0.072719
 H        -0.062551        -1.642032         0.354193
 H         1.833037         0.274029        -1.910185
 H         1.546981         1.823875        -0.840065
 H         4.384741         0.508890        -2.292498
 H         5.418413        -0.263173        -1.025080
 H         3.285491        -1.724088         0.547883
 H         3.973684         0.770592         1.938227
 H         3.203637         2.040923         1.130655
