19
Iteration:  3509
 C         0.064218        -0.827791         0.426474
 C         1.514870        -0.116499         0.244449
 C         1.892855         1.038963        -0.672808
 C         3.382217         0.532410        -0.221452
 C         4.235200        -0.101940        -1.310752
 O         3.359520        -1.142014        -1.500130
 C         2.772943        -0.874993        -0.134320
 C         3.439762         0.969835         1.194809
 O         2.072451         0.437511         1.577135
 H         0.206059        -1.886499         0.568376
 H        -0.493333        -0.496518         1.492966
 H        -0.545066        -0.541512        -0.482967
 H         1.764489         1.114987        -1.775538
 H         1.561136         1.963372        -0.250637
 H         4.311074         0.522669        -2.190102
 H         5.147088        -0.489312        -0.913289
 H         3.019560        -1.715985         0.509533
 H         4.170948         0.446143         1.707820
 H         3.478945         2.091669         1.338152
