19
Iteration:  2137
 C         0.226847        -0.718166         0.533307
 C         1.522964        -0.152934         0.168485
 C         1.908238         0.564568        -1.127935
 C         3.435656         0.571321        -0.373673
 C         4.374698        -0.300669        -1.160321
 O         3.472360        -1.462189        -0.837097
 C         3.001391        -0.774496         0.285163
 C         3.068769         1.456383         0.899295
 O         1.797735         0.770613         1.188359
 H        -0.104284        -1.295263        -0.356049
 H         0.311327        -1.351097         1.489506
 H        -0.587236         0.060049         0.701593
 H         2.025716        -0.133463        -2.043306
 H         1.465959         1.497780        -1.357547
 H         4.374897        -0.245952        -2.243695
 H         5.390287        -0.579757        -0.685686
 H         3.119733        -1.210215         1.266355
 H         3.718542         1.259722         1.691935
 H         2.657342         2.491929         0.787436
