19
Iteration:  1015charge 0 multiplicity 1
 C         0.211717        -0.874192         0.636147
 C         1.445764        -0.148195         0.203794
 C         2.053915        -0.066559        -1.227277
 C         3.290687         0.370909        -0.463292
 C         4.545271        -0.440262        -0.730688
 O         3.897028        -1.568985        -0.151787
 C         2.869586        -0.589639         0.673875
 C         2.846228         1.787550         0.130993
 O         1.550931         1.382455         0.533917
 H         0.235473        -1.883417         0.191413
 H         0.049834        -0.996369         1.716842
 H        -0.683772        -0.382748         0.260623
 H         2.198761        -1.031393        -1.654171
 H         1.331457         0.560021        -1.806528
 H         4.935890        -0.535714        -1.796265
 H         5.477378        -0.073248        -0.197711
 H         3.279316        -0.543636         1.743661
 H         3.343759         2.129947         0.985462
 H         2.662537         2.459367        -0.673620
