19
Iteration:  3078charge 0 multiplicity 1
 C         0.183164        -0.661670         0.464650
 C         1.540920        -0.161840         0.192813
 C         1.880142         0.842324        -0.916242
 C         3.286492         0.597986        -0.345991
 C         4.241206        -0.087213        -1.269099
 O         3.398485        -1.276690        -1.258836
 C         2.857952        -0.890324         0.082146
 C         3.313249         1.079336         1.095693
 O         2.011287         0.491500         1.512383
 H        -0.297359        -0.962880        -0.432491
 H         0.347644        -1.488381         1.138255
 H        -0.408141         0.014932         1.051369
 H         1.748558         0.481656        -2.059883
 H         1.400241         1.953540        -0.805299
 H         4.524720         0.341873        -2.258048
 H         5.208116        -0.400812        -0.752281
 H         3.096213        -1.548879         0.947220
 H         4.022082         0.618073         1.759864
 H         3.318572         2.105584         1.263766
