19
Iteration:  1761
 C         0.175218        -0.742147         0.543131
 C         1.447836        -0.162802         0.163921
 C         1.958194         0.425990        -1.153695
 C         3.368717         0.517134        -0.387954
 C         4.386805        -0.359303        -1.029415
 O         3.730593        -1.543769        -0.610453
 C         2.951169        -0.775581         0.418188
 C         2.964039         1.583788         0.542858
 O         1.773524         0.931918         1.086932
 H        -0.177318        -0.151811         1.451749
 H        -0.628341        -0.618221        -0.224503
 H         0.377140        -1.818972         0.683374
 H         1.733442        -0.362529        -1.952480
 H         1.514362         1.315856        -1.446128
 H         4.498609        -0.391648        -2.124408
 H         5.377354        -0.283553        -0.669891
 H         3.116056        -0.993970         1.446302
 H         3.547026         1.806061         1.458699
 H         2.714224         2.620805         0.156940
