19
Iteration:  1194charge 0 multiplicity 1
 C         0.283220        -0.825521         0.563660
 C         1.537202        -0.182096         0.203849
 C         1.960102         0.000757        -1.235681
 C         3.331596         0.463673        -0.488561
 C         4.521541        -0.420563        -0.823666
 O         3.729401        -1.559828        -0.182544
 C         2.975080        -0.535522         0.505628
 C         2.949478         1.703423         0.268497
 O         1.494270         1.241738         0.732003
 H        -0.174825        -1.098326        -0.411247
 H         0.337820        -1.737411         1.187472
 H        -0.537680        -0.185197         1.038256
 H         1.940758        -1.025035        -1.800891
 H         1.390428         0.734011        -1.754995
 H         4.925226        -0.669100        -1.831588
 H         5.387316        -0.380412        -0.017311
 H         3.285646        -0.331990         1.614359
 H         3.511655         1.837022         1.154834
 H         2.808646         2.686908        -0.326630
