19
Iteration:   277
 C         0.239462        -0.835146         0.749732
 C         1.522411        -0.261650         0.167887
 C         2.197140        -0.595305        -1.127814
 C         3.359862         0.336669        -0.537983
 C         4.638641        -0.425333        -0.470307
 O         3.932081        -1.264992         0.570682
 C         2.890925        -0.185531         0.818757
 C         2.657594         1.740093        -0.532001
 O         1.318455         1.274531        -0.061393
 H        -0.226583        -1.670198         0.123921
 H         0.410782        -1.164893         1.775120
 H        -0.467478         0.018871         0.757690
 H         2.555974        -1.609162        -1.229318
 H         1.710151        -0.185890        -2.040256
 H         4.969283        -0.960025        -1.348032
 H         5.459554         0.158960         0.059869
 H         3.054424         0.307567         1.809065
 H         3.108249         2.527225         0.138106
 H         2.496004         2.335559        -1.444565
