19
Iteration:   459charge 0 multiplicity 1
 C         0.164703        -0.848891         0.677253
 C         1.492808        -0.265160         0.157496
 C         2.107856        -0.500097        -1.236596
 C         3.268682         0.353190        -0.550006
 C         4.647983        -0.417662        -0.497560
 O         3.947324        -1.336742         0.473041
 C         2.904508        -0.218499         0.756318
 C         2.682519         1.762382        -0.447015
 O         1.483205         1.296323         0.239652
 H        -0.358426        -1.346333        -0.107380
 H         0.304887        -1.672509         1.325267
 H        -0.483782        -0.128663         1.095395
 H         2.397935        -1.497484        -1.454378
 H         1.654500        -0.116030        -2.124529
 H         5.038659        -0.874969        -1.412092
 H         5.408291         0.066737         0.078695
 H         3.221895         0.314283         1.620185
 H         3.345001         2.371573         0.153040
 H         2.508139         2.344495        -1.318245
