19
Iteration:  3932
 C         0.197069        -0.714693         0.368433
 C         1.563067        -0.149326         0.351311
 C         1.898733         1.057683        -0.628873
 C         3.381050         0.589107        -0.202441
 C         4.242575        -0.042480        -1.386758
 O         3.187434        -1.076176        -1.529255
 C         2.796902        -0.971175        -0.198367
 C         3.461388         0.915969         1.289904
 O         2.040599         0.301255         1.571635
 H        -0.267762        -0.622277        -0.778427
 H         0.030119        -1.751836         0.750885
 H        -0.435545         0.032591         0.975067
 H         1.570699         0.864841        -1.564529
 H         1.634798         1.917602        -0.232888
 H         4.341095         0.692293        -2.226820
 H         5.247143        -0.384642        -1.023659
 H         3.112961        -1.771984         0.497920
 H         4.251407         0.388081         1.724796
 H         3.528557         1.986401         1.635471
