19
Iteration:  2052
 C         0.234878        -0.665432         0.564911
 C         1.557123        -0.178679         0.163728
 C         1.936203         0.468794        -1.209481
 C         3.342225         0.588727        -0.367886
 C         4.415534        -0.329000        -1.088584
 O         3.557198        -1.508200        -0.826453
 C         2.908426        -0.825053         0.289261
 C         2.978269         1.568189         0.790142
 O         1.834282         0.768488         1.233202
 H        -0.448343         0.213211         0.735644
 H        -0.264541        -1.215461        -0.271243
 H         0.272376        -1.208491         1.539805
 H         2.162259        -0.161363        -2.137825
 H         1.477636         1.398318        -1.423647
 H         4.446009        -0.209875        -2.159180
 H         5.394298        -0.396223        -0.622331
 H         3.130623        -1.077403         1.320140
 H         3.759683         1.620091         1.712469
 H         2.492428         2.515004         0.655784
