19
Iteration:  3465charge 0 multiplicity 1
 C         0.175590        -0.701626         0.435137
 C         1.550009        -0.185359         0.202523
 C         1.974023         0.923856        -0.742185
 C         3.418735         0.547537        -0.171785
 C         4.216285        -0.109549        -1.376117
 O         3.227689        -1.048335        -1.464339
 C         2.826059        -0.936708        -0.070893
 C         3.371953         1.019161         1.255915
 O         2.023152         0.373606         1.558276
 H         0.068244        -1.652493        -0.059437
 H        -0.049109        -0.808720         1.660871
 H        -0.558000         0.028377         0.026998
 H         1.841741         0.586989        -1.845475
 H         1.493977         1.896941        -0.769253
 H         4.220589         0.491822        -2.279039
 H         5.163918        -0.476678        -1.013233
 H         3.277593        -1.616782         0.646218
 H         4.059503         0.612649         1.928927
 H         3.229863         2.221141         1.365157
