19
Iteration:  2530
 C         0.127682        -0.688883         0.527877
 C         1.533565        -0.131212         0.277319
 C         1.874883         0.564613        -1.039766
 C         3.361103         0.596623        -0.353500
 C         4.376500        -0.205757        -1.207778
 O         3.495079        -1.410387        -1.067598
 C         2.944310        -0.824884         0.128274
 C         3.203995         1.217915         1.036741
 O         1.831525         0.800878         1.317834
 H         0.103371        -1.765883         0.710550
 H        -0.385045        -0.228634         1.301075
 H        -0.450964        -0.486484        -0.350552
 H         1.835780        -0.116986        -1.850273
 H         1.364852         1.552973        -1.275540
 H         4.295168        -0.018782        -2.284605
 H         5.450315        -0.180870        -0.883953
 H         3.500242        -1.098278         0.954897
 H         3.933270         0.688128         1.606391
 H         3.216831         2.247118         1.200149
