19
Iteration:  2548charge 0 multiplicity 1
 C         0.067067        -0.832213         0.487177
 C         1.470116        -0.194802         0.257687
 C         1.868807         0.676335        -0.964750
 C         3.350153         0.582508        -0.367817
 C         4.346241        -0.195498        -1.191883
 O         3.523008        -1.430635        -1.106729
 C         2.909132        -0.830325         0.148674
 C         3.298085         1.290744         0.969648
 O         1.890588         0.869596         1.341219
 H         0.144289        -1.839562         0.980668
 H        -0.620769        -0.172509         1.266951
 H        -0.576207        -0.771021        -0.482003
 H         1.836064         0.116904        -1.924106
 H         1.463239         1.654157        -1.061895
 H         4.787173        -0.067899        -2.233205
 H         5.153350        -0.444692        -0.488006
 H         3.324105        -1.403795         1.084394
 H         3.978833         0.700378         1.680396
 H         3.332702         2.428282         0.917507
