19
Iteration:   264charge 0 multiplicity 1
 C         0.279136        -0.751555         0.803012
 C         1.489656        -0.182044         0.103031
 C         2.257998        -0.543380        -1.267750
 C         3.267024         0.390451        -0.546331
 C         4.575721        -0.408793        -0.371633
 O         3.986121        -1.255780         0.593763
 C         2.856866        -0.250138         0.858156
 C         2.612420         1.659966        -0.606364
 O         1.388042         1.210953         0.011574
 H        -0.217047        -1.355563         0.035678
 H         0.633657        -1.497566         1.548752
 H        -0.428407        -0.077356         1.281671
 H         2.556939        -1.566243        -1.356472
 H         1.853711        -0.158914        -2.184462
 H         4.800887        -0.997311        -1.225210
 H         5.518600         0.104359        -0.016615
 H         2.858606         0.063883         1.841622
 H         3.068741         2.407527        -0.007388
 H         2.454823         2.021449        -1.694851
