19
Iteration:  1167charge 0 multiplicity 1
 C         0.191980        -0.885507         0.665176
 C         1.439625        -0.164380         0.138135
 C         2.066372         0.080342        -1.261653
 C         3.314159         0.483591        -0.464974
 C         4.482780        -0.399211        -0.769711
 O         3.839406        -1.575543        -0.154574
 C         2.829777        -0.644086         0.526700
 C         2.870462         1.756661         0.147823
 O         1.678109         1.225150         0.710320
 H        -0.709384        -0.701405         0.070423
 H         0.295940        -1.970254         0.441413
 H        -0.093181        -0.772634         1.674019
 H         2.105208        -0.794889        -1.811793
 H         1.565531         0.889257        -1.893857
 H         4.795900        -0.635586        -1.800660
 H         5.245769        -0.271829        -0.073656
 H         3.086916        -0.473934         1.574088
 H         3.499999         2.123724         1.085471
 H         2.744283         2.673601        -0.367257
