19
Iteration:  4903
 C         0.142148        -0.565359         0.442343
 C         1.562188        -0.192018         0.222555
 C         1.929716         0.915491        -0.631246
 C         3.411312         0.519352        -0.171328
 C         4.221965         0.017735        -1.426022
 O         3.279773        -1.064692        -1.615885
 C         2.822018        -0.928580        -0.188166
 C         3.332853         0.908296         1.298462
 O         2.070368         0.251373         1.656364
 H        -0.507477        -0.794393        -0.474227
 H         0.025130        -1.314349         1.207751
 H        -0.318761         0.434580         0.901402
 H         1.695903         0.719918        -1.644726
 H         1.568238         1.884270        -0.320179
 H         4.363678         0.789613        -2.161429
 H         5.127380        -0.275863        -0.987724
 H         3.078274        -1.883754         0.475703
 H         4.190178         0.504902         1.955056
 H         3.265744         2.016818         1.391792
