19
Iteration:  3341
 C         0.101163        -0.804645         0.442995
 C         1.461748        -0.141278         0.279799
 C         2.015481         0.871033        -0.688668
 C         3.417974         0.497912        -0.194503
 C         4.293412        -0.035456        -1.318933
 O         3.287332        -1.171138        -1.462493
 C         2.802786        -0.973425        -0.022303
 C         3.397885         1.076561         1.124140
 O         1.984773         0.572823         1.500530
 H        -0.823109        -0.157791         0.656178
 H        -0.164907        -1.326000        -0.615293
 H         0.328477        -1.480893         1.287935
 H         1.755850         0.785332        -1.674839
 H         1.719904         1.844842        -0.387939
 H         4.246296         0.435483        -2.306054
 H         5.266969        -0.460955        -1.174435
 H         3.162309        -1.795720         0.623117
 H         4.104789         0.699781         1.908123
 H         3.317126         2.319932         1.160614
