19
Iteration:  4159
 C         0.135229        -0.595457         0.594642
 C         1.479709        -0.159397         0.273849
 C         1.930436         0.996053        -0.677597
 C         3.364451         0.539577        -0.218405
 C         4.297040         0.057569        -1.298909
 O         3.303306        -1.107303        -1.595077
 C         2.796057        -0.889117        -0.246745
 C         3.392860         0.828402         1.280007
 O         2.037392         0.262442         1.499431
 H        -0.392248        -0.453922        -0.280881
 H         0.077004        -1.619367         0.668296
 H        -0.332450        -0.218461         1.455060
 H         1.800702         0.835971        -1.705073
 H         1.536908         2.129797        -0.570335
 H         4.492124         0.670069        -2.121116
 H         5.212382        -0.397208        -0.952906
 H         3.236992        -1.756029         0.524490
 H         4.012689         0.306340         2.007119
 H         3.308876         1.861258         1.570047
