19
Iteration:  4506
 C         0.094093        -0.654308         0.469813
 C         1.512558        -0.150072         0.261723
 C         1.943400         1.089950        -0.571573
 C         3.379686         0.518491        -0.210813
 C         4.214635         0.100557        -1.402620
 O         3.304732        -1.177461        -1.565407
 C         2.803578        -0.903134        -0.230881
 C         3.438494         0.805174         1.334362
 O         2.024200         0.287601         1.571848
 H        -0.276361        -1.268129        -0.275106
 H         0.084933        -1.252526         1.346691
 H        -0.718836         0.088280         0.482880
 H         1.868115         1.126401        -1.868364
 H         1.851394         2.063094         0.010479
 H         4.088014         0.715612        -2.345612
 H         5.267035        -0.285000        -1.434769
 H         3.253725        -1.502300         0.458012
 H         4.178654         0.150872         1.848569
 H         3.654344         1.890524         1.428675
