19
Iteration:  4523charge 0 multiplicity 1
 C         0.167785        -0.723534         0.451853
 C         1.489538        -0.091956         0.246813
 C         1.972008         1.109468        -0.660190
 C         3.382199         0.548012        -0.223116
 C         4.164679         0.029162        -1.386097
 O         3.272072        -1.079270        -1.518128
 C         2.762553        -0.869622        -0.155692
 C         3.451976         0.719737         1.259197
 O         2.080791         0.327324         1.570245
 H        -0.227512        -1.143143        -0.576445
 H         0.237103        -1.595060         1.200827
 H        -0.583447         0.016232         0.797590
 H         1.808856         0.837253        -1.585735
 H         1.607211         2.064427        -0.381816
 H         4.222505         0.691225        -2.251547
 H         5.183890        -0.239890        -1.081876
 H         2.953702        -1.747913         0.647900
 H         4.128734         0.008119         1.721985
 H         3.488953         1.663941         1.832592
