19
Iteration:   587charge 0 multiplicity 1
 C         0.219700        -0.886899         0.684199
 C         1.555301        -0.279650         0.216902
 C         2.104605        -0.389865        -1.235534
 C         3.372178         0.435937        -0.538691
 C         4.618754        -0.437737        -0.553590
 O         3.787140        -1.381781         0.332868
 C         2.961310        -0.307712         0.744366
 C         2.736015         1.780661        -0.330852
 O         1.418236         1.299845         0.240869
 H        -0.350844        -0.175693         1.273758
 H        -0.396680        -1.243331        -0.207355
 H         0.379915        -1.729181         1.358586
 H         2.435344        -1.364505        -1.411470
 H         1.528642         0.160512        -1.956436
 H         5.006497        -0.899502        -1.484637
 H         5.493257        -0.185204         0.051963
 H         3.201585         0.309216         1.642943
 H         3.209412         2.278924         0.477532
 H         2.543328         2.379372        -1.195466
