19
Iteration:  4444
 C         0.080053        -0.604475         0.483981
 C         1.526535        -0.200388         0.288924
 C         1.923815         0.964847        -0.684894
 C         3.348808         0.550344        -0.222843
 C         4.238945        -0.012172        -1.351917
 O         3.266199        -0.970238        -1.582180
 C         2.790209        -0.903063        -0.230954
 C         3.427620         0.847682         1.276306
 O         2.134050         0.240887         1.603774
 H        -0.194202        -1.365852        -0.332841
 H        -0.010416        -1.103266         1.459698
 H        -0.564260         0.338908         0.503865
 H         1.781596         0.797582        -1.597662
 H         1.564023         1.967061        -0.489035
 H         4.463328         0.554864        -2.239465
 H         5.139641        -0.459821        -0.912687
 H         3.113177        -1.729449         0.551145
 H         4.082191         0.253698         1.939054
 H         3.345171         1.878160         1.618054
