19
Iteration:  3048charge 0 multiplicity 1
 C         0.090281        -0.752020         0.423790
 C         1.526363        -0.147891         0.358827
 C         1.945492         0.852439        -0.821660
 C         3.397456         0.508993        -0.249248
 C         4.257351        -0.179584        -1.357305
 O         3.424396        -1.264519        -1.347131
 C         2.863567        -0.943302         0.035488
 C         3.324536         1.195883         1.118154
 O         1.921391         0.637659         1.496683
 H        -0.380598        -0.568892        -0.488364
 H         0.213499        -1.879783         0.500679
 H        -0.418170        -0.557227         1.313347
 H         1.794250         0.463013        -1.901162
 H         1.653714         1.845375        -0.708025
 H         4.156248         0.458334        -2.252573
 H         5.242709        -0.537629        -1.228788
 H         3.240312        -1.658559         0.762829
 H         3.924095         0.858574         1.979944
 H         3.335736         2.371771         1.093535
