19
Iteration:  2694
 C         0.218971        -0.721634         0.442973
 C         1.588386        -0.200576         0.232036
 C         1.904896         0.725952        -1.031806
 C         3.317956         0.571714        -0.315733
 C         4.314254        -0.188671        -1.181583
 O         3.419031        -1.398654        -1.147609
 C         2.893943        -0.948362         0.141207
 C         3.152830         1.343946         0.985854
 O         1.912125         0.678676         1.432301
 H        -0.204908         0.203424         1.077630
 H        -0.456507        -0.930296        -0.379614
 H         0.292083        -1.586213         1.172046
 H         1.837201         0.250335        -1.930906
 H         1.506870         1.678678        -1.103790
 H         4.595818         0.190671        -2.136457
 H         5.195744        -0.429920        -0.621515
 H         3.382766        -1.271021         1.040914
 H         4.028092         1.180161         1.656758
 H         2.981473         2.417074         0.952694
