19
Iteration:    31
 C         0.165616        -0.901199         0.736715
 C         1.452743        -0.237459         0.192185
 C         2.061445        -0.735561        -1.172636
 C         3.234225         0.276089        -0.586906
 C         4.635804        -0.276168        -0.206311
 O         4.074764        -1.084848         0.769060
 C         2.942760        -0.176888         0.846931
 C         2.750884         1.624016        -0.800084
 O         1.412839         1.325828        -0.181942
 H        -0.821836        -0.314737         0.809445
 H        -0.170487        -1.671415        -0.013070
 H         0.404906        -1.401833         1.706321
 H         2.414017        -1.773257        -1.151520
 H         1.409755        -0.536784        -2.074687
 H         5.082775        -0.950015        -1.051508
 H         5.310029         0.482440         0.206618
 H         3.034978         0.502230         1.673387
 H         3.206738         2.391733        -0.225119
 H         2.565095         1.750654        -1.818044
