19
Iteration:  1200
 C         0.279352        -0.810594         0.549772
 C         1.533080        -0.180636         0.236522
 C         1.976563         0.011252        -1.213176
 C         3.351635         0.481450        -0.510605
 C         4.480471        -0.419477        -0.812219
 O         3.737969        -1.581335        -0.179472
 C         2.926585        -0.572410         0.546857
 C         2.880640         1.743791         0.254230
 O         1.550782         1.206915         0.704635
 H         0.020034        -1.160575        -0.454577
 H         0.420995        -1.569032         1.323036
 H        -0.456826        -0.103370         0.807063
 H         2.076322        -0.885510        -1.746157
 H         1.380373         0.830426        -1.718796
 H         4.910625        -0.617060        -1.807222
 H         5.349561        -0.349521        -0.254912
 H         3.515599        -0.350047         1.407622
 H         3.436510         1.698568         1.264873
 H         2.736574         2.644150        -0.270030
