19
Iteration:  3741charge 0 multiplicity 1
 C         0.049756        -0.686536         0.524094
 C         1.439609        -0.103179         0.309043
 C         1.936127         1.072791        -0.654463
 C         3.391134         0.542995        -0.245415
 C         4.264478         0.080323        -1.369656
 O         3.388525        -1.107553        -1.594572
 C         2.739275        -0.901566        -0.172037
 C         3.535767         0.754187         1.232696
 O         1.991320         0.310046         1.568994
 H        -0.353913        -1.051128        -0.499433
 H         0.082720        -1.677171         1.273239
 H        -0.749092         0.032650         1.046778
 H         1.815197         0.901948        -1.622299
 H         1.553997         2.014177        -0.240776
 H         4.241653         0.706099        -2.268504
 H         5.298675        -0.235324        -1.050943
 H         3.129076        -1.731196         0.416357
 H         4.234637         0.104148         1.815658
 H         3.550921         1.764387         1.596429
