19
Iteration:  1463charge 0 multiplicity 1
 C         0.062916        -0.886978         0.547029
 C         1.446133        -0.171276         0.261844
 C         1.935256         0.258509        -1.213004
 C         3.321930         0.418330        -0.463567
 C         4.505309        -0.361219        -0.884153
 O         3.839700        -1.564832        -0.478674
 C         2.878843        -0.676391         0.501895
 C         3.097685         1.660072         0.379410
 O         1.635829         1.193246         0.949956
 H         0.157904        -1.751991         1.284880
 H        -0.785999        -0.220782         0.858478
 H        -0.267828        -1.376342        -0.398616
 H         1.916593        -0.569192        -1.970202
 H         1.518188         1.079446        -1.733417
 H         4.710868        -0.511634        -1.982054
 H         5.462778        -0.180177        -0.302089
 H         3.126102        -0.773655         1.544398
 H         3.763922         1.964077         1.227073
 H         2.970352         2.580189        -0.052610
