19
Iteration:  1963charge 0 multiplicity 1
 C         0.201137        -0.802350         0.564289
 C         1.481785        -0.091315         0.204917
 C         2.026029         0.522395        -1.158310
 C         3.365896         0.550157        -0.387717
 C         4.377439        -0.400287        -1.074280
 O         3.600217        -1.533010        -0.772671
 C         2.884419        -0.796246         0.301483
 C         2.991681         1.574288         0.682672
 O         1.786442         0.875082         1.219954
 H         0.443854        -1.426301         1.423666
 H        -0.561341        -0.063534         0.959208
 H        -0.192564        -1.472887        -0.262060
 H         2.050644        -0.099399        -2.067485
 H         1.621447         1.466308        -1.510728
 H         4.564563        -0.266815        -2.121588
 H         5.344211        -0.389741        -0.560910
 H         3.229066        -1.000477         1.314489
 H         3.827017         1.784741         1.493649
 H         2.699605         2.492627         0.145654
