19
Iteration:  4060
 C         0.135439        -0.690590         0.489722
 C         1.495277        -0.162541         0.219859
 C         2.039200         1.033878        -0.595850
 C         3.392434         0.587224        -0.162436
 C         4.179562         0.001974        -1.420848
 O         3.274667        -1.033841        -1.595113
 C         2.806885        -0.900776        -0.200354
 C         3.441609         0.828600         1.319033
 O         1.998551         0.258243         1.549946
 H        -0.081585        -1.527332        -0.107728
 H         0.099633        -1.027169         1.485869
 H        -0.671399         0.012266         0.356581
 H         1.827204         0.991592        -1.683422
 H         1.602551         2.147568        -0.331776
 H         4.304038         0.509590        -2.330107
 H         5.147635        -0.350960        -1.055658
 H         3.025131        -1.644960         0.590234
 H         4.252394         0.256918         1.815929
 H         3.390963         1.843138         1.741249
