19
Iteration:  3688
 C         0.091629        -0.589857         0.428911
 C         1.526315        -0.206442         0.259145
 C         1.969672         0.930702        -0.691464
 C         3.395671         0.541757        -0.226202
 C         4.235285         0.033139        -1.364342
 O         3.209526        -1.021194        -1.512057
 C         2.865245        -0.894038        -0.157435
 C         3.333705         0.921281         1.272698
 O         2.131736         0.196954         1.617681
 H        -0.536829         0.081646        -0.278361
 H        -0.263304        -1.668489         0.143316
 H        -0.146819        -0.455679         1.566530
 H         1.769632         0.529988        -1.668885
 H         1.620375         2.001243        -0.535294
 H         4.311667         0.632694        -2.237743
 H         5.191642        -0.462971        -1.169727
 H         3.439284        -1.608190         0.449392
 H         4.087390         0.507875         1.813857
 H         3.211924         1.962634         1.527569
