19
Iteration:  3564
 C        -0.008172        -0.611426         0.499292
 C         1.519257        -0.174762         0.293303
 C         1.934360         0.907681        -0.612812
 C         3.390362         0.429167        -0.180552
 C         4.280651         0.091275        -1.408112
 O         3.370034        -1.131335        -1.551956
 C         2.832328        -0.949696        -0.192631
 C         3.360090         0.981670         1.270111
 O         2.081311         0.348291         1.543639
 H        -0.201179        -1.083445         1.463848
 H        -0.705554         0.334571         0.111198
 H        -0.348736        -1.544287        -0.108626
 H         1.797423         0.697327        -1.651221
 H         1.466627         1.850019        -0.416588
 H         4.369601         0.729241        -2.298985
 H         5.283088        -0.224808        -1.152206
 H         3.052611        -1.753199         0.510183
 H         4.082497         0.578274         1.854396
 H         3.435842         2.029450         1.352187
