19
Iteration:  1736charge 0 multiplicity 1
 C         0.100110        -0.734300         0.549815
 C         1.482400        -0.279586         0.226581
 C         1.951249         0.211914        -1.233430
 C         3.290844         0.585416        -0.444004
 C         4.424125        -0.300133        -1.032181
 O         3.669631        -1.541137        -0.637404
 C         3.025066        -0.747378         0.370791
 C         3.100537         1.573188         0.662798
 O         1.686426         1.094928         1.132002
 H        -0.201493        -0.781810         1.554977
 H        -0.532768        -0.017049         0.011357
 H         0.052307        -1.671615        -0.044384
 H         2.097928        -0.654717        -1.836076
 H         1.254055         0.922774        -1.814263
 H         4.647288        -0.453550        -2.104256
 H         5.441587        -0.211201        -0.551113
 H         3.479165        -0.725096         1.417302
 H         3.846400         1.497722         1.461496
 H         2.880324         2.707831         0.357249
