19
Iteration:   977
 C         0.245614        -0.732667         0.629071
 C         1.530482        -0.225645         0.179451
 C         2.049613        -0.040775        -1.331028
 C         3.270040         0.456787        -0.537681
 C         4.508031        -0.459342        -0.719952
 O         3.874492        -1.533101        -0.007950
 C         2.899771        -0.476068         0.641485
 C         2.717098         1.697234         0.059165
 O         1.597197         1.165647         0.638843
 H        -0.447720        -0.861561        -0.232780
 H         0.322723        -1.772242         1.050481
 H        -0.192764         0.034570         1.294252
 H         2.332940        -1.052105        -1.768167
 H         1.556237         0.660980        -2.046237
 H         4.882051        -0.711971        -1.706659
 H         5.331615        -0.169241        -0.037891
 H         3.161986        -0.331181         1.671997
 H         3.560915         2.080351         0.881535
 H         2.452628         2.553230        -0.674477
