19
Iteration:  1362
 C         0.264146        -0.890465         0.473000
 C         1.500744        -0.137713         0.235330
 C         1.952193         0.161544        -1.236668
 C         3.265992         0.480993        -0.515772
 C         4.438069        -0.361898        -0.849425
 O         3.695259        -1.575708        -0.303722
 C         2.969749        -0.650122         0.496416
 C         2.925451         1.648823         0.397763
 O         1.695535         1.209294         0.860204
 H        -0.588479        -0.490337        -0.173124
 H         0.314471        -2.012757         0.365486
 H        -0.137550        -0.524350         1.430964
 H         1.969539        -0.773059        -1.797530
 H         1.369448         0.938811        -1.759224
 H         4.884742        -0.646930        -1.788292
 H         5.321622        -0.104625        -0.176075
 H         3.444683        -0.625382         1.502413
 H         3.660893         1.723051         1.244084
 H         2.864995         2.552916        -0.190365
