19
Iteration:  2846charge 0 multiplicity 1
 C         0.180262        -0.731427         0.560875
 C         1.494855        -0.092013         0.195436
 C         1.979859         0.779796        -1.018478
 C         3.393518         0.618692        -0.286884
 C         4.296955        -0.180143        -1.254886
 O         3.408478        -1.365703        -1.238232
 C         2.874483        -0.849902         0.082075
 C         3.211004         1.178224         1.137521
 O         1.901199         0.586083         1.395966
 H         0.381183        -1.851142         0.601230
 H        -0.109363        -0.347604         1.506210
 H        -0.657802        -0.570516        -0.117657
 H         1.844020         0.321465        -1.903468
 H         1.479862         1.745803        -1.026924
 H         4.294768         0.291925        -2.228672
 H         5.320583        -0.471086        -0.946882
 H         3.399632        -1.337899         1.000510
 H         4.021028         0.880433         1.902025
 H         3.052568         2.309758         1.256091
