19
Iteration:  2088charge 0 multiplicity 1
 C        -0.000529        -0.860185         0.493685
 C         1.415510        -0.110201         0.353670
 C         1.855600         0.523439        -1.048464
 C         3.358351         0.472628        -0.400732
 C         4.479128        -0.276115        -1.064935
 O         3.691456        -1.478926        -0.904182
 C         2.828881        -0.853121         0.256388
 C         3.230719         1.503664         0.748585
 O         1.844071         0.965100         1.175406
 H        -0.685313        -0.421220        -0.246363
 H         0.264603        -1.847918         0.343609
 H        -0.443059        -0.844285         1.447273
 H         1.723337        -0.037272        -1.954449
 H         1.262541         1.559726        -1.137687
 H         4.703691        -0.052158        -2.151990
 H         5.376242        -0.373990        -0.498874
 H         3.407221        -1.338516         1.146027
 H         3.877957         1.367900         1.698443
 H         3.091494         2.590137         0.518046
