19
Iteration:  2089charge 0 multiplicity 1
 C        -0.007037        -0.866204         0.496632
 C         1.413963        -0.109540         0.351458
 C         1.856773         0.527383        -1.056941
 C         3.362904         0.471631        -0.393351
 C         4.484770        -0.276739        -1.079164
 O         3.694151        -1.477899        -0.897399
 C         2.820958        -0.857744         0.252976
 C         3.236373         1.504437         0.763930
 O         1.843525         0.971364         1.172713
 H        -0.671595        -0.461536        -0.239371
 H         0.281917        -1.863630         0.369028
 H        -0.480550        -0.833806         1.443300
 H         1.700579        -0.044476        -1.937840
 H         1.264692         1.586028        -1.102537
 H         4.690636        -0.035158        -2.181103
 H         5.387627        -0.371194        -0.486766
 H         3.408825        -1.364184         1.134359
 H         3.841368         1.360907         1.669679
 H         3.108651         2.595735         0.462021
