19
Iteration:  2622charge 0 multiplicity 1
 C         0.159669        -0.724391         0.447772
 C         1.543613        -0.167686         0.276013
 C         1.863364         0.636111        -0.900819
 C         3.322816         0.512391        -0.351819
 C         4.323047        -0.164699        -1.207776
 O         3.485358        -1.372166        -1.116417
 C         2.914753        -0.903633         0.180119
 C         3.286686         1.249573         1.005876
 O         1.854360         0.813407         1.296747
 H        -0.204939        -0.549622         1.403207
 H        -0.544490        -0.203818        -0.225736
 H         0.080417        -1.768196         0.170628
 H         1.696448         0.002112        -1.904348
 H         1.319697         1.656528        -1.041961
 H         4.383743         0.148190        -2.284144
 H         5.379456        -0.181960        -0.792731
 H         3.347750        -1.539110         1.065614
 H         3.998957         0.893539         1.805577
 H         3.295018         2.410420         1.085999
