19
Iteration:  3288
 C         0.097122        -0.737909         0.506428
 C         1.456721        -0.125132         0.248624
 C         1.913061         0.979685        -0.774234
 C         3.372427         0.545102        -0.293997
 C         4.309500        -0.065150        -1.375075
 O         3.408202        -1.261105        -1.308807
 C         2.827239        -0.844376        -0.066763
 C         3.283883         1.043185         1.143742
 O         2.048841         0.397811         1.522730
 H        -0.208288        -0.321750         1.451401
 H        -0.475478        -0.288723        -0.323429
 H        -0.008635        -1.752812         0.515138
 H         1.615578         0.583902        -1.827494
 H         1.658412         2.039537        -0.607985
 H         4.478425         0.339107        -2.418994
 H         5.324698        -0.450212        -1.085190
 H         3.093015        -1.499842         0.767268
 H         4.025690         0.606361         1.728784
 H         3.221315         2.183677         1.271992
