19
Iteration:   395charge 0 multiplicity 1
 C         0.207497        -0.941101         0.758836
 C         1.472972        -0.266192         0.197772
 C         2.127455        -0.520626        -1.116308
 C         3.320220         0.401659        -0.606831
 C         4.625182        -0.370972        -0.513472
 O         3.920690        -1.326828         0.484299
 C         2.865880        -0.299379         0.826579
 C         2.772937         1.790612        -0.464213
 O         1.418563         1.348473        -0.009580
 H        -0.429765        -0.119388         1.164757
 H        -0.349405        -1.387148        -0.032620
 H         0.506786        -1.700154         1.480936
 H         2.527831        -1.521008        -1.189760
 H         1.630246        -0.170996        -2.029195
 H         5.035791        -0.904356        -1.310037
 H         5.382253         0.188733         0.050438
 H         2.892298         0.072949         1.811505
 H         3.352743         2.281919         0.214110
 H         2.470514         2.584555        -1.177698
