19
Iteration:  4767
 C         0.086350        -0.511779         0.486925
 C         1.525313        -0.138086         0.278807
 C         1.888353         1.005907        -0.617463
 C         3.329248         0.519588        -0.276210
 C         4.270441         0.079158        -1.380311
 O         3.344856        -1.093773        -1.522804
 C         2.861822        -0.952416        -0.187538
 C         3.403349         0.845512         1.235813
 O         2.063767         0.194165         1.578063
 H        -0.583780        -0.581365        -0.438242
 H        -0.099629        -1.708721         0.825225
 H        -0.436405        -0.005244         1.521748
 H         1.744070         0.917312        -1.774959
 H         1.590498         1.962035        -0.332698
 H         4.229410         0.799676        -2.268945
 H         5.239613        -0.409034        -1.150442
 H         3.221794        -1.850283         0.455030
 H         4.053762         0.329354         1.899946
 H         3.283720         1.936597         1.450500
