19
Iteration:    12charge 0 multiplicity 1
 C         0.186467        -0.876320         0.737173
 C         1.470729        -0.311254         0.177099
 C         2.220363        -0.647343        -1.049526
 C         3.334757         0.231690        -0.611877
 C         4.701327        -0.286710        -0.354982
 O         3.990001        -1.135080         0.831789
 C         2.845129        -0.086134         0.832508
 C         2.651980         1.569907        -0.819821
 O         1.360556         1.286793        -0.185267
 H        -0.250438        -0.132245         1.397664
 H        -0.518007        -1.080459        -0.099985
 H         0.367663        -1.802343         1.302933
 H         2.240048        -1.704668        -1.153775
 H         1.719453        -0.191813        -1.900870
 H         5.310998        -0.878873        -1.029411
 H         5.244841         0.536279         0.110336
 H         2.827309         0.609417         1.667712
 H         3.134571         2.288724        -0.169262
 H         2.541664         2.001632        -1.822968
