19
Iteration:  2915
 C         0.204805        -0.668427         0.440396
 C         1.557476        -0.100928         0.260100
 C         1.916713         0.691872        -0.881686
 C         3.370557         0.609471        -0.309222
 C         4.278396        -0.155359        -1.294239
 O         3.392439        -1.330495        -1.266703
 C         2.898260        -0.847406         0.046667
 C         3.171389         1.196835         1.105244
 O         1.961935         0.573359         1.504201
 H        -0.047042        -0.708239         1.519567
 H        -0.631538        -0.111154        -0.164355
 H         0.163055        -1.714826         0.024442
 H         1.790081         0.189393        -1.860345
 H         1.500386         1.552922        -0.891676
 H         4.425429         0.228259        -2.306752
 H         5.212590        -0.430967        -0.870826
 H         3.110169        -1.557186         0.854088
 H         4.035507         0.787142         1.702162
 H         3.155624         2.345158         1.346769
