19
Iteration:  1423
 C         0.226414        -0.675900         0.582185
 C         1.566656        -0.217770         0.120687
 C         1.971721         0.130153        -1.267382
 C         3.352558         0.549445        -0.383707
 C         4.503578        -0.438275        -0.911133
 O         3.768309        -1.564820        -0.406042
 C         2.918477        -0.690630         0.505699
 C         2.867922         1.707544         0.420822
 O         1.605156         1.029393         0.909074
 H         0.086447        -1.685267         0.355069
 H         0.050069        -0.418785         1.600233
 H        -0.469553         0.060816         0.069103
 H         2.100924        -0.655171        -1.946258
 H         1.315389         1.010404        -1.640832
 H         4.545836        -0.421994        -2.021593
 H         5.429335        -0.135429        -0.413268
 H         3.213328        -0.942080         1.544145
 H         3.466631         1.894376         1.368345
 H         2.556868         2.661894        -0.200918
