19
Iteration:   543charge 0 multiplicity 1
 C         0.246933        -0.887896         0.720552
 C         1.455275        -0.218128         0.061645
 C         2.088273        -0.408380        -1.298882
 C         3.296791         0.384097        -0.575457
 C         4.634019        -0.390322        -0.492757
 O         3.917608        -1.409224         0.476005
 C         2.879758        -0.340827         0.706098
 C         2.718669         1.774981        -0.348712
 O         1.468279         1.337431         0.277869
 H         0.545078        -1.256321         1.701980
 H        -0.591192        -0.066988         0.778680
 H        -0.118220        -1.765340         0.156995
 H         2.367062        -1.420552        -1.456467
 H         1.617117         0.164476        -2.129196
 H         4.904907        -0.940893        -1.460684
 H         5.546170         0.136117        -0.129569
 H         3.050613        -0.009827         1.772349
 H         3.397561         2.371487         0.309721
 H         2.422953         2.171861        -1.300016
