19
Iteration:  2921charge 0 multiplicity 1
 C         0.175145        -0.632951         0.461558
 C         1.522223        -0.146241         0.263338
 C         1.970029         0.710853        -0.925852
 C         3.378156         0.592157        -0.292603
 C         4.214711        -0.136412        -1.309720
 O         3.412681        -1.348200        -1.292269
 C         2.910926        -0.852490         0.070818
 C         3.176312         1.235319         1.118790
 O         1.965511         0.551519         1.495766
 H        -0.062809        -0.737477         1.525752
 H        -0.515554        -0.192793        -0.173154
 H         0.263929        -1.704017         0.277158
 H         1.925970         0.177423        -1.861654
 H         1.486307         1.871469        -0.983504
 H         4.446501         0.226955        -2.325661
 H         5.218411        -0.376693        -0.804204
 H         3.185080        -1.593909         0.884270
 H         3.907766         0.753421         1.774829
 H         3.077537         2.257430         1.351709
