19
Iteration:  1980charge 0 multiplicity 1
 C         0.135855        -0.831212         0.522790
 C         1.505456        -0.208653         0.216459
 C         1.929486         0.446589        -1.204727
 C         3.304441         0.576394        -0.467293
 C         4.455976        -0.303063        -1.058692
 O         3.518645        -1.514736        -0.748366
 C         2.956844        -0.680147         0.313143
 C         3.142220         1.520738         0.732656
 O         1.793996         0.930386         1.241710
 H        -0.112008        -1.102075         1.580212
 H        -0.557486        -0.071918         0.216965
 H         0.068130        -1.721091        -0.072182
 H         1.921169        -0.380808        -1.890101
 H         1.429840         1.414875        -1.539203
 H         4.582305        -0.282539        -2.189295
 H         5.340937        -0.447896        -0.399367
 H         3.433517        -1.017585         1.272335
 H         3.877283         1.261137         1.400912
 H         3.003586         2.633398         0.640480
