19
Iteration:  1075charge 0 multiplicity 1
 C         0.172238        -0.808867         0.567136
 C         1.487007        -0.150828         0.152097
 C         1.979332         0.082083        -1.259153
 C         3.302376         0.417216        -0.504830
 C         4.565906        -0.443267        -0.787101
 O         3.893019        -1.593353        -0.005315
 C         2.980921        -0.636213         0.583711
 C         2.822797         1.760503         0.070015
 O         1.547271         1.216134         0.737084
 H         0.224751        -1.254027         1.576605
 H        -0.671067        -0.092038         0.579545
 H        -0.083394        -1.652872        -0.159409
 H         2.123149        -0.914093        -1.818485
 H         1.349912         0.721300        -1.814930
 H         4.644339        -0.554363        -1.829122
 H         5.437595        -0.123707        -0.251331
 H         3.172229        -0.378526         1.613950
 H         3.499501         2.237004         0.777460
 H         2.690401         2.584026        -0.668111
