19
Iteration:  2321charge 0 multiplicity 1
 C         0.112656        -0.793052         0.596334
 C         1.472231        -0.146874         0.110240
 C         1.991832         0.726123        -1.007106
 C         3.379040         0.524320        -0.306101
 C         4.390103        -0.285004        -1.225410
 O         3.584813        -1.494428        -0.971214
 C         2.861610        -0.880526         0.164542
 C         3.141901         1.457141         0.917631
 O         1.830304         0.770447         1.299840
 H        -0.522158         0.000571         0.721587
 H        -0.348927        -1.500535        -0.082767
 H         0.298385        -1.165173         1.591935
 H         1.882285         0.414322        -2.141366
 H         1.748810         1.824256        -0.939086
 H         4.175633         0.049939        -2.247436
 H         5.415742        -0.481272        -1.053662
 H         2.971563        -1.409472         1.158012
 H         3.847371         1.391163         1.759414
 H         2.856005         2.407172         0.535663
