19
Iteration:  2256charge 0 multiplicity 1
 C         0.053781        -0.834413         0.460465
 C         1.449192        -0.217619         0.256832
 C         1.918698         0.667189        -0.951012
 C         3.340080         0.493244        -0.319218
 C         4.346101        -0.211014        -1.103938
 O         3.572292        -1.515335        -1.017056
 C         2.864233        -0.920371         0.190009
 C         3.236393         1.463039         0.859761
 O         1.925129         0.942684         1.262175
 H        -0.405161        -0.769752         1.399185
 H        -0.624550        -0.527571        -0.329712
 H         0.192434        -1.895466         0.308283
 H         1.747786         0.175469        -2.030053
 H         1.673020         1.730637        -0.861092
 H         4.455235         0.134762        -2.120275
 H         5.289229        -0.159758        -0.567821
 H         3.398933        -1.524619         1.060491
 H         3.963011         1.364687         1.580330
 H         3.007260         2.531747         0.487213
