19
Iteration:  2730charge 0 multiplicity 1
 C         0.089513        -0.870885         0.489594
 C         1.465842        -0.066495         0.282180
 C         1.931270         0.780331        -0.912360
 C         3.335856         0.425781        -0.293226
 C         4.346950        -0.148428        -1.242923
 O         3.516151        -1.410641        -1.207890
 C         2.894932        -0.932997         0.110800
 C         3.256304         1.278743         0.964506
 O         1.877666         0.831694         1.418735
 H        -0.727197        -0.236923         0.122581
 H         0.120139        -1.871151         0.027245
 H        -0.164490        -1.000584         1.546976
 H         1.919378         0.313430        -2.021772
 H         1.609639         1.882468        -0.893741
 H         4.438245         0.401374        -2.213617
 H         5.334617        -0.423724        -0.793979
 H         3.330172        -1.462020         0.904291
 H         3.882441         0.919575         1.701044
 H         3.261934         2.327861         1.023988
