19
Iteration:  2552charge 0 multiplicity 1
 C         0.085098        -0.842424         0.488402
 C         1.472195        -0.180088         0.221583
 C         1.843003         0.695562        -0.950900
 C         3.363371         0.553865        -0.329151
 C         4.355803        -0.196542        -1.167750
 O         3.513580        -1.431554        -1.115955
 C         2.879311        -0.863178         0.151912
 C         3.284910         1.312596         0.942244
 O         1.907187         0.866232         1.347070
 H         0.107601        -1.825659         0.983606
 H        -0.468571        -0.217567         1.127441
 H        -0.500010        -0.853624        -0.407687
 H         1.761529         0.175371        -1.864122
 H         1.549417         1.748977        -1.044527
 H         4.698351        -0.136016        -2.189952
 H         5.277785        -0.316116        -0.491986
 H         3.266901        -1.318802         0.984344
 H         3.984263         0.866208         1.615166
 H         3.340413         2.347522         0.872223
