19
Iteration:   547charge 0 multiplicity 1
 C         0.269467        -0.881822         0.684837
 C         1.481641        -0.214620         0.111112
 C         2.064825        -0.354178        -1.278229
 C         3.235125         0.342622        -0.565083
 C         4.651189        -0.386554        -0.497391
 O         3.912775        -1.418020         0.482203
 C         2.917439        -0.391186         0.698069
 C         2.740442         1.762680        -0.345389
 O         1.426875         1.376356         0.254842
 H         0.600224        -1.085575         1.715970
 H        -0.565790        -0.258557         0.723845
 H         0.062522        -1.818294         0.175113
 H         2.367240        -1.401627        -1.475887
 H         1.580323        -0.040340        -2.195834
 H         4.849663        -0.856818        -1.464751
 H         5.526185         0.102929        -0.023003
 H         3.040343        -0.025620         1.692229
 H         3.421321         2.468230         0.251103
 H         2.512422         2.257361        -1.310127
