19
Iteration:  4339
 C         0.066031        -0.595796         0.452041
 C         1.461460        -0.169483         0.264888
 C         1.895466         0.985504        -0.564797
 C         3.356348         0.413276        -0.166308
 C         4.299103         0.038729        -1.348899
 O         3.326477        -1.023349        -1.604729
 C         2.786009        -0.965092        -0.208748
 C         3.416134         0.934179         1.217544
 O         2.125952         0.255513         1.583682
 H        -0.538351        -0.415903        -0.427751
 H         0.123854        -1.649477         0.682811
 H        -0.368928        -0.076943         1.223316
 H         1.631906         0.773772        -1.754683
 H         1.654053         1.925530        -0.085271
 H         4.367270         0.633878        -2.291866
 H         5.255265        -0.404971        -1.157658
 H         3.049375        -1.776902         0.660507
 H         4.095386         0.698131         1.985993
 H         3.282699         2.053015         1.303466
