19
Iteration:  2146charge 0 multiplicity 1
 C         0.145408        -0.779011         0.487068
 C         1.493369        -0.160305         0.204060
 C         1.918214         0.569887        -1.078901
 C         3.402899         0.573531        -0.353399
 C         4.469161        -0.367859        -1.161539
 O         3.495313        -1.449397        -0.884151
 C         2.907852        -0.739328         0.244753
 C         3.057864         1.447774         0.841690
 O         1.843137         0.814091         1.279136
 H        -0.097454        -1.610753        -0.105171
 H         0.151383        -1.122487         1.552001
 H        -0.553623         0.054629         0.351479
 H         1.988820        -0.227462        -1.890949
 H         1.398819         1.526089        -1.386921
 H         4.549426        -0.066314        -2.235333
 H         5.504388        -0.548049        -0.739871
 H         3.452867        -1.162190         1.177055
 H         3.734763         1.373660         1.653095
 H         2.871367         2.590732         0.664755
