19
Iteration:  2297charge 0 multiplicity 1
 C         0.270275        -0.761561         0.511668
 C         1.562007        -0.088605         0.196647
 C         1.976353         0.599009        -1.087819
 C         3.319895         0.598252        -0.358717
 C         4.314886        -0.280789        -1.162086
 O         3.436430        -1.459557        -0.957998
 C         2.891781        -0.801752         0.187229
 C         3.122488         1.398289         0.920122
 O         1.857385         0.755321         1.325252
 H        -0.352315        -0.162183         1.151044
 H        -0.256032        -0.916082        -0.490784
 H         0.438775        -1.718164         1.017656
 H         1.935839        -0.004081        -2.070924
 H         1.517467         1.590304        -1.248747
 H         4.511304        -0.077638        -2.263505
 H         5.208956        -0.565215        -0.597295
 H         3.181379        -1.126889         1.168553
 H         3.881513         1.047230         1.742140
 H         2.892618         2.426795         0.794407
