19
Iteration:   337charge 0 multiplicity 1
 C         0.129022        -0.809564         0.751440
 C         1.489029        -0.321898         0.087352
 C         2.148103        -0.508078        -1.298756
 C         3.333451         0.388040        -0.555368
 C         4.574856        -0.425165        -0.408621
 O         4.040199        -1.236036         0.640307
 C         2.904915        -0.328712         0.769539
 C         2.614326         1.734746        -0.628111
 O         1.516519         1.289485         0.195053
 H         0.296334        -1.315713         1.647131
 H        -0.598369         0.026040         0.930365
 H        -0.396050        -1.470537         0.070998
 H         2.644486        -1.454147        -1.567588
 H         1.715360        -0.057401        -2.174381
 H         4.918611        -0.941355        -1.345112
 H         5.431405         0.126820        -0.077376
 H         2.800569         0.192762         1.746031
 H         3.065246         2.570562        -0.124449
 H         2.054420         1.913389        -1.499759
