19
Iteration:  2078charge 0 multiplicity 1
 C         0.095378        -0.779664         0.474981
 C         1.470352        -0.148271         0.275490
 C         1.853517         0.490558        -1.014754
 C         3.289959         0.527289        -0.403402
 C         4.429382        -0.281929        -0.998724
 O         3.640149        -1.508890        -0.936096
 C         2.927883        -0.817218         0.264950
 C         3.158848         1.464010         0.696925
 O         1.835265         0.933198         1.239729
 H        -0.670683        -0.261573        -0.096192
 H         0.094023        -1.750494         0.051948
 H        -0.191690        -0.793867         1.495347
 H         1.880248        -0.167311        -1.858002
 H         1.414591         1.526879        -1.338942
 H         4.762168        -0.103192        -2.067607
 H         5.329410        -0.290168        -0.367818
 H         3.285471        -1.099678         1.325981
 H         3.962537         1.312193         1.414386
 H         2.979750         2.560212         0.599685
