19
Iteration:  1250
 C         0.112966        -0.762614         0.582200
 C         1.478239        -0.123716         0.142098
 C         2.007442         0.128072        -1.249237
 C         3.317633         0.454338        -0.470759
 C         4.469123        -0.380797        -0.833406
 O         3.875476        -1.583393        -0.220229
 C         2.955940        -0.669666         0.567693
 C         2.846811         1.690395         0.250174
 O         1.654441         1.142685         0.795078
 H         0.423656        -1.746691         1.018155
 H        -0.372638        -0.161224         1.373342
 H        -0.549916        -0.930467        -0.345245
 H         2.002709        -0.879552        -1.703119
 H         1.568134         0.917236        -1.899574
 H         4.739188        -0.639510        -1.859760
 H         5.512315        -0.196013        -0.291112
 H         3.063658        -0.790803         1.690907
 H         3.529276         2.073141         0.988896
 H         2.507160         2.559409        -0.464120
