19
Iteration:  2557
 C         0.133494        -0.843775         0.490035
 C         1.481128        -0.157779         0.195973
 C         1.840692         0.724766        -0.934843
 C         3.343297         0.508723        -0.305062
 C         4.382857        -0.224666        -1.122933
 O         3.500369        -1.424649        -1.113068
 C         2.833759        -0.886578         0.119420
 C         3.253464         1.317774         0.909714
 O         1.925530         0.851585         1.352148
 H         0.140995        -1.828162         0.953693
 H        -0.420382        -0.074639         1.157610
 H        -0.429951        -1.017339        -0.473379
 H         1.697211         0.187846        -1.951166
 H         1.533237         1.809516        -0.976041
 H         4.556910        -0.010236        -2.218072
 H         5.345926        -0.216574        -0.620398
 H         3.286875        -1.365998         1.110531
 H         4.087608         1.109879         1.680540
 H         3.316527         2.491339         0.842861
