19
Iteration:  1672charge 0 multiplicity 1
 C         0.273394        -0.825746         0.629861
 C         1.527803        -0.162252         0.114570
 C         1.984407         0.392724        -1.230576
 C         3.334662         0.539006        -0.507259
 C         4.477464        -0.399984        -0.979625
 O         3.589627        -1.580224        -0.521962
 C         2.905156        -0.684884         0.350549
 C         2.920651         1.650435         0.599559
 O         1.745891         0.970014         1.066232
 H         0.430817        -1.889431         0.786271
 H        -0.140812        -0.360388         1.561298
 H        -0.512570        -0.752243        -0.187964
 H         2.107812        -0.401907        -1.916337
 H         1.523242         1.257476        -1.725244
 H         4.597910        -0.440126        -2.066574
 H         5.390844        -0.312594        -0.451370
 H         3.104369        -0.853975         1.385497
 H         3.417648         1.902908         1.509014
 H         2.785207         2.681497         0.238403
