19
Iteration:   987charge 0 multiplicity 1
 C         0.152346        -0.793942         0.634742
 C         1.493153        -0.191086         0.140802
 C         2.032700        -0.073990        -1.292925
 C         3.304441         0.421060        -0.499607
 C         4.555552        -0.421456        -0.707456
 O         3.836639        -1.536463        -0.039987
 C         2.986255        -0.542601         0.655231
 C         2.866315         1.772457         0.066481
 O         1.538468         1.187468         0.593987
 H        -0.432877        -1.193191        -0.233211
 H         0.413582        -1.581710         1.402436
 H        -0.424502        -0.009625         1.161999
 H         2.094469        -0.979482        -1.911037
 H         1.323089         0.640057        -1.789845
 H         4.837396        -0.680010        -1.708971
 H         5.413461        -0.061340        -0.109518
 H         3.388442        -0.344671         1.650614
 H         3.319948         2.343331         0.974144
 H         2.533592         2.589323        -0.698644
