19
Iteration:   291charge 0 multiplicity 1
 C         0.184399        -0.853998         0.685976
 C         1.524512        -0.263827         0.262936
 C         2.137498        -0.587123        -1.095673
 C         3.279701         0.422678        -0.647322
 C         4.655081        -0.404261        -0.415954
 O         3.926756        -1.295836         0.589794
 C         3.058976        -0.217523         0.754350
 C         2.681698         1.778715        -0.497802
 O         1.316771         1.298841        -0.073051
 H         0.094701        -1.929068         0.330301
 H         0.028250        -0.857035         1.776313
 H        -0.687572        -0.277154         0.241403
 H         2.467236        -1.665217        -1.100436
 H         1.401820        -0.476499        -1.942688
 H         5.025196        -1.070276        -1.277142
 H         5.565068         0.037336         0.015576
 H         3.330927         0.546868         1.637421
 H         3.080075         2.161292         0.531601
 H         2.687274         2.189553        -1.469762
