19
Iteration:   443
 C         0.302122        -0.793070         0.645658
 C         1.579755        -0.206435         0.125957
 C         2.116411        -0.429125        -1.261539
 C         3.325927         0.384918        -0.721763
 C         4.568993        -0.494990        -0.412826
 O         3.915753        -1.298177         0.561698
 C         2.961551        -0.332331         0.723849
 C         2.618764         1.720197        -0.445371
 O         1.402371         1.256281         0.272869
 H        -0.512768        -0.809518        -0.161374
 H         0.507190        -1.832050         1.097063
 H         0.021968        -0.157198         1.558423
 H         2.359746        -1.533484        -1.357198
 H         1.435415         0.001023        -2.040660
 H         4.914348        -1.114052        -1.313698
 H         5.426404         0.141766        -0.014554
 H         2.887334         0.067955         1.797100
 H         3.021540         2.616466         0.230517
 H         2.323759         2.295474        -1.420360
