19
Iteration:  4208
 C         0.161893        -0.661588         0.429752
 C         1.539146        -0.122474         0.286619
 C         1.906403         1.090849        -0.631077
 C         3.376541         0.498728        -0.194678
 C         4.207400         0.039151        -1.351487
 O         3.304079        -1.118806        -1.558336
 C         2.788742        -0.918586        -0.157672
 C         3.453474         0.819054         1.273750
 O         2.041519         0.290840         1.554462
 H        -0.288573        -1.044239        -0.585837
 H        -0.085863        -1.572516         1.135966
 H        -0.504059         0.139957         0.897548
 H         1.589444         1.046990        -1.767539
 H         1.621114         2.029539        -0.324450
 H         4.145309         0.731583        -2.266606
 H         5.241424        -0.315327        -1.186665
 H         3.148418        -1.656033         0.428853
 H         4.153145         0.179789         1.836162
 H         3.404213         1.937758         1.585816
