19
Iteration:  1113charge 0 multiplicity 1
 C         0.087727        -0.800242         0.567060
 C         1.490923        -0.269655         0.195236
 C         2.011935        -0.092488        -1.254815
 C         3.326148         0.517678        -0.488750
 C         4.553578        -0.302780        -0.804660
 O         3.805546        -1.592275        -0.127389
 C         3.002257        -0.611211         0.584186
 C         2.933223         1.732674         0.185520
 O         1.540959         1.271628         0.703508
 H        -0.365283        -0.198520         1.381267
 H        -0.646717        -0.717283        -0.255536
 H         0.136526        -1.809919         0.897675
 H         2.351934        -0.994707        -1.637629
 H         1.328968         0.470600        -1.999036
 H         4.730367        -0.700038        -1.872268
 H         5.504090        -0.201655        -0.223873
 H         3.419487        -0.260567         1.583768
 H         3.541422         2.056923         1.161153
 H         2.740735         2.585760        -0.487903
