19
Iteration:  4633
 C         0.061105        -0.629127         0.496233
 C         1.502787        -0.133117         0.238397
 C         1.846097         1.058313        -0.548146
 C         3.378388         0.512958        -0.266529
 C         4.247979         0.038925        -1.383046
 O         3.402979        -1.146197        -1.559237
 C         2.756681        -0.859441        -0.216692
 C         3.433755         0.765331         1.287828
 O         2.113065         0.306026         1.564839
 H        -0.298672        -1.180020        -0.496564
 H        -0.259560        -1.275693         1.439250
 H        -0.519766         0.336977         0.637305
 H         1.794204         0.977302        -1.579101
 H         1.311248         1.969238        -0.256481
 H         4.108434         0.652222        -2.266457
 H         5.254458        -0.136844        -1.238804
 H         3.199511        -1.674833         0.476192
 H         4.144849         0.113387         1.763424
 H         3.448636         1.785730         1.686060
