19
Iteration:  4908
 C         0.126092        -0.522214         0.463922
 C         1.551580        -0.193389         0.232752
 C         1.939018         0.920914        -0.614653
 C         3.388012         0.514995        -0.229706
 C         4.254178         0.015563        -1.406915
 O         3.289025        -1.052272        -1.597461
 C         2.843837        -0.953681        -0.180892
 C         3.281594         0.874801         1.282622
 O         2.076279         0.251146         1.648065
 H        -0.336302        -0.779899        -0.448800
 H         0.072974        -1.362151         1.199950
 H        -0.186266         0.276004         1.041057
 H         1.585517         0.844735        -1.774516
 H         1.616826         1.946891        -0.280103
 H         4.273013         0.771141        -2.239740
 H         5.285578        -0.259222        -0.965288
 H         3.082612        -1.825514         0.409151
 H         4.077055         0.516817         1.891139
 H         3.228066         1.973002         1.343513
