19
Iteration:  3712charge 0 multiplicity 1
 C         0.115233        -0.545001         0.481437
 C         1.511739        -0.130929         0.229801
 C         1.920251         1.033624        -0.588141
 C         3.362370         0.532602        -0.227517
 C         4.230004         0.057790        -1.369075
 O         3.357235        -1.156985        -1.592859
 C         2.792692        -0.989048        -0.205584
 C         3.363401         0.949905         1.290845
 O         2.104067         0.185188         1.592253
 H        -0.558072        -0.325467        -0.374196
 H         0.098154        -1.584337         0.532756
 H        -0.219201        -0.222310         1.445378
 H         1.642324         0.849466        -1.729979
 H         1.471625         1.956990        -0.146830
 H         4.291756         0.606629        -2.297840
 H         5.206502        -0.272102        -1.031283
 H         3.106389        -1.861117         0.416773
 H         4.135811         0.641044         1.941786
 H         3.056002         2.019832         1.462453
