19
Iteration:  1401charge 0 multiplicity 1
 C         0.081737        -0.832618         0.605164
 C         1.511897        -0.202703         0.189916
 C         2.039267         0.278601        -1.240194
 C         3.314428         0.444257        -0.443728
 C         4.508559        -0.393164        -0.904575
 O         3.782854        -1.576154        -0.340655
 C         2.947313        -0.720338         0.445489
 C         2.891365         1.681861         0.379526
 O         1.662652         1.131848         0.875255
 H        -0.262037        -1.488778        -0.158758
 H         0.116503        -1.372156         1.533605
 H        -0.566755         0.050043         0.805159
 H         2.130686        -0.593002        -1.833984
 H         1.712243         1.211040        -1.808745
 H         4.637028        -0.467155        -2.001318
 H         5.373740        -0.061365        -0.336066
 H         3.240758        -0.605453         1.511982
 H         3.557818         2.003991         1.232936
 H         2.555438         2.540152        -0.307975
