19
Iteration:  3616charge 0 multiplicity 1
 C         0.139243        -0.768447         0.484876
 C         1.526249        -0.119256         0.266837
 C         2.001336         1.063086        -0.689982
 C         3.418568         0.615496        -0.216181
 C         4.259634        -0.083603        -1.350732
 O         3.223477        -1.080734        -1.495247
 C         2.794046        -0.784468        -0.205116
 C         3.393338         0.839033         1.287164
 O         2.003932         0.279836         1.548785
 H        -0.418415        -0.258701         1.262873
 H        -0.643943        -0.780360        -0.387162
 H         0.282381        -1.803231         0.748729
 H         1.782898         0.614887        -1.770750
 H         1.641057         2.069398        -0.588097
 H         4.281982         0.494277        -2.361669
 H         5.302577        -0.387804        -1.100245
 H         3.214304        -1.445806         0.595056
 H         4.351024         0.392231         1.861317
 H         3.329294         1.953876         1.515401
