19
Iteration:   575charge 0 multiplicity 1
 C         0.264008        -0.921274         0.683204
 C         1.477137        -0.137261         0.218840
 C         2.079542        -0.373725        -1.177612
 C         3.274180         0.355646        -0.601921
 C         4.640026        -0.446859        -0.472901
 O         3.872656        -1.446585         0.323677
 C         2.946845        -0.224943         0.774257
 C         2.750813         1.778481        -0.294638
 O         1.441156         1.279254         0.158631
 H        -0.179604        -0.452055         1.560692
 H        -0.554905        -0.932588        -0.145683
 H         0.610064        -1.955998         0.866713
 H         2.174502        -1.311794        -1.677033
 H         1.536487         0.189508        -1.952716
 H         4.853315        -0.893689        -1.448018
 H         5.455907         0.102088         0.012888
 H         3.217414        -0.095045         1.857526
 H         3.333443         2.389007         0.333627
 H         2.494979         2.472386        -1.104485
