19
Iteration:    89
 C         0.223431        -0.775547         0.732639
 C         1.543526        -0.289017         0.167322
 C         2.207584        -0.593135        -1.096621
 C         3.330471         0.367856        -0.569862
 C         4.695507        -0.393256        -0.372698
 O         3.980305        -1.226428         0.780192
 C         2.892639        -0.157993         0.872292
 C         2.562808         1.725368        -0.753004
 O         1.336943         1.165980        -0.187573
 H        -0.342727        -1.383035         0.057786
 H         0.465805        -1.236749         1.708451
 H        -0.398781         0.119522         0.899744
 H         2.647718        -1.591407        -1.133740
 H         1.589828        -0.333387        -1.926321
 H         4.988982        -1.011752        -1.198377
 H         5.588169         0.149839         0.026099
 H         2.785842         0.321705         1.840953
 H         2.923807         2.552180        -0.229246
 H         2.359421         1.965563        -1.715443
