19
Iteration:   922charge 0 multiplicity 1
 C         0.183638        -0.801376         0.549721
 C         1.519252        -0.220127         0.290787
 C         2.025304        -0.141342        -1.215973
 C         3.261350         0.410810        -0.494989
 C         4.534174        -0.375606        -0.751066
 O         3.877729        -1.518660         0.038885
 C         2.986080        -0.615604         0.678365
 C         2.877230         1.755196         0.012521
 O         1.464706         1.340340         0.482980
 H        -0.422817        -0.155664         1.231115
 H        -0.445356        -1.180449        -0.324143
 H         0.378492        -1.727031         1.125724
 H         2.080140        -1.090665        -1.772205
 H         1.289074         0.612331        -1.694792
 H         4.962219        -0.623611        -1.722586
 H         5.404295        -0.078983        -0.104480
 H         3.343562        -0.464950         1.683989
 H         3.680866         2.146580         0.829299
 H         2.759242         2.464557        -0.862992
