19
Iteration:  4996
 C         0.145200        -0.755636         0.419052
 C         1.542156        -0.163556         0.232978
 C         2.005480         1.055611        -0.619215
 C         3.473181         0.490048        -0.207423
 C         4.235868        -0.053602        -1.477397
 O         3.156691        -1.046465        -1.574209
 C         2.831735        -0.873193        -0.169549
 C         3.358352         0.930794         1.369579
 O         2.050942         0.355051         1.668707
 H        -0.204924        -0.997910        -0.564136
 H         0.083608        -1.673527         1.037002
 H        -0.569279        -0.047220         0.745023
 H         1.782139         0.947635        -1.793623
 H         1.717241         2.088824        -0.202927
 H         4.251697         0.498074        -2.417985
 H         5.141292        -0.659911        -1.306752
 H         3.090244        -1.940342         0.384414
 H         4.027663         0.414112         2.067621
 H         3.407679         2.046602         1.520316
