19
Iteration:  1664
 C         0.308597        -0.815975         0.573925
 C         1.562682        -0.118682         0.208555
 C         1.924100         0.333542        -1.268805
 C         3.362437         0.563775        -0.427760
 C         4.436747        -0.393391        -0.983061
 O         3.575491        -1.538217        -0.517783
 C         2.940950        -0.695697         0.325674
 C         2.951467         1.612921         0.579613
 O         1.673878         1.002400         1.054073
 H         0.412002        -1.950034         0.684362
 H        -0.043058        -0.564608         1.607637
 H        -0.454150        -0.540717        -0.176090
 H         2.007375        -0.567015        -1.972133
 H         1.490638         1.177188        -1.707673
 H         4.740791        -0.382359        -2.051646
 H         5.408250        -0.391639        -0.428596
 H         3.189015        -0.970961         1.357452
 H         3.738911         1.588625         1.531196
 H         2.826179         2.523626         0.044993
