19
Iteration:  1374charge 0 multiplicity 1
 C         0.172621        -0.812331         0.477070
 C         1.505216        -0.142552         0.169467
 C         1.859937         0.150847        -1.198994
 C         3.256265         0.455473        -0.482754
 C         4.536922        -0.412734        -0.844666
 O         3.777077        -1.563449        -0.342596
 C         2.905520        -0.701564         0.499967
 C         3.002268         1.686351         0.364124
 O         1.664177         1.219609         0.893362
 H        -0.427354        -1.123831        -0.453595
 H         0.702534        -1.783640         0.798489
 H        -0.286580        -0.628424         1.457418
 H         1.904785        -0.813720        -1.801130
 H         1.425629         0.954562        -1.734788
 H         4.736338        -0.427248        -1.929688
 H         5.381784        -0.064994        -0.152294
 H         3.200696        -0.597970         1.555171
 H         3.806408         1.819933         1.196429
 H         2.783781         2.674095         0.008848
