19
Iteration:  1249
 C         0.116402        -0.767691         0.580813
 C         1.474669        -0.121008         0.146417
 C         2.012603         0.132142        -1.243940
 C         3.312638         0.450719        -0.465546
 C         4.478988        -0.378767        -0.829195
 O         3.875268        -1.585473        -0.221718
 C         2.947103        -0.665233         0.564881
 C         2.843747         1.692078         0.249896
 O         1.663211         1.144595         0.791317
 H         0.393988        -1.763845         0.981634
 H        -0.351629        -0.167961         1.373904
 H        -0.576643        -0.924025        -0.315229
 H         2.019406        -0.905397        -1.720210
 H         1.575544         0.912122        -1.870827
 H         4.710344        -0.637164        -1.871533
 H         5.522498        -0.204588        -0.350874
 H         3.026857        -0.764048         1.693969
 H         3.509973         2.054159         0.982845
 H         2.481179         2.534793        -0.485537
