19
Iteration:  2315
 C         0.137907        -0.809267         0.588331
 C         1.472797        -0.171256         0.104592
 C         1.998396         0.769556        -1.044984
 C         3.404661         0.540462        -0.312803
 C         4.332776        -0.290744        -1.194119
 O         3.531117        -1.505238        -0.955748
 C         2.877700        -0.851294         0.178968
 C         3.111353         1.447438         0.951882
 O         1.865248         0.739929         1.274357
 H        -0.507872         0.161246         0.843573
 H        -0.419589        -1.419370        -0.145875
 H         0.415903        -1.381028         1.517999
 H         2.040189         0.327106        -1.976854
 H         1.635555         1.780551        -1.263843
 H         4.163974         0.038225        -2.232179
 H         5.453721        -0.387449        -0.967448
 H         3.143792        -1.376077         1.119497
 H         3.893023         1.524557         1.740051
 H         2.967928         2.528768         0.567333
