19
Iteration:  2190
 C         0.155149        -0.752778         0.493843
 C         1.498870        -0.184163         0.241168
 C         1.856875         0.586431        -1.005977
 C         3.326144         0.422268        -0.329169
 C         4.406662        -0.206944        -1.075634
 O         3.617393        -1.431504        -0.971350
 C         2.844725        -0.873835         0.183209
 C         3.183981         1.390856         0.815083
 O         1.847560         0.899050         1.245364
 H         0.211976        -1.742206         0.845324
 H        -0.422361        -0.186685         1.256223
 H        -0.351415        -0.735614        -0.468620
 H         1.665692        -0.053326        -1.971545
 H         1.411236         1.601800        -0.947501
 H         4.525989        -0.059406        -2.154553
 H         5.408020        -0.333695        -0.607364
 H         3.018315        -1.198279         1.301357
 H         3.893440         1.307250         1.595234
 H         3.089916         2.515986         0.457978
