19
Iteration:  2108
 C         0.124471        -0.872522         0.529874
 C         1.447179        -0.171527         0.144760
 C         1.919228         0.616355        -1.027307
 C         3.346733         0.455390        -0.304923
 C         4.388079        -0.249186        -1.133567
 O         3.667996        -1.540094        -0.863147
 C         2.889121        -0.872860         0.223759
 C         3.135191         1.431760         0.795720
 O         1.797098         1.064626         1.228275
 H        -0.566969        -0.862364        -0.385484
 H         0.261825        -1.891617         0.874710
 H        -0.350259        -0.330810         1.345005
 H         1.949873         0.086451        -1.982494
 H         1.551444         1.599080        -1.309497
 H         4.352191        -0.072410        -2.207554
 H         5.418437        -0.315089        -0.844398
 H         3.041143        -1.286789         1.227517
 H         3.945628         1.333327         1.670314
 H         3.112207         2.480849         0.594692
