19
Iteration:  2472
 C         0.147799        -0.714005         0.483320
 C         1.508373        -0.108692         0.249686
 C         1.846170         0.671930        -0.967687
 C         3.357238         0.540052        -0.356921
 C         4.428530        -0.277521        -1.171938
 O         3.501673        -1.451521        -1.104552
 C         2.864452        -0.863052         0.142877
 C         3.179292         1.365935         0.909523
 O         1.891443         0.748133         1.410265
 H         0.210876        -1.710518        -0.014494
 H        -0.121956        -0.872207         1.633674
 H        -0.689246        -0.214432        -0.121821
 H         1.701412         0.151455        -1.923511
 H         1.321707         1.564455        -0.944514
 H         4.669496        -0.138503        -2.282135
 H         5.387130        -0.366428        -0.559857
 H         3.368824        -1.208361         1.018405
 H         4.083174         1.435012         1.572763
 H         2.951263         2.414456         0.825982
