19
Iteration:  3912charge 0 multiplicity 1
 C         0.148394        -0.638091         0.445333
 C         1.513286        -0.161249         0.238921
 C         1.967201         0.946430        -0.640938
 C         3.402937         0.547239        -0.198017
 C         4.230748        -0.048418        -1.359619
 O         3.161091        -1.000932        -1.606675
 C         2.876254        -0.840772        -0.164029
 C         3.343681         0.861457         1.289967
 O         2.099568         0.259045         1.655031
 H        -0.327302        -1.063395        -0.478583
 H         0.170585        -1.460051         1.130884
 H        -0.580402         0.100483         0.661405
 H         1.897456         0.733697        -1.805825
 H         1.519903         1.944724        -0.500086
 H         4.582804         0.571708        -2.241585
 H         5.058272        -0.531818        -0.921083
 H         3.433525        -1.662174         0.427522
 H         4.207917         0.468020         1.757189
 H         3.227339         1.945811         1.413743
