19
Iteration:   697
 C         0.194906        -0.845771         0.682911
 C         1.505193        -0.216354         0.117145
 C         2.123660        -0.223767        -1.267217
 C         3.375463         0.441709        -0.485539
 C         4.604893        -0.480251        -0.632624
 O         3.878408        -1.531592         0.310119
 C         2.979586        -0.419919         0.705071
 C         2.644515         1.841664        -0.246687
 O         1.449637         1.284776         0.361326
 H         0.505314        -1.790866         1.167361
 H        -0.098707        -0.149156         1.473120
 H        -0.707638        -0.907385         0.064096
 H         2.439894        -1.110008        -1.727030
 H         1.758770         0.493253        -1.918727
 H         4.874041        -0.937642        -1.591549
 H         5.481898        -0.132452        -0.156092
 H         3.018827        -0.256758         1.803439
 H         3.160609         2.466516         0.413099
 H         2.334316         2.296710        -1.173935
