19
Iteration:  2579charge 0 multiplicity 1
 C         0.252027        -0.762226         0.533013
 C         1.527075        -0.057314         0.198541
 C         1.971596         0.785911        -0.972228
 C         3.410097         0.530703        -0.253473
 C         4.298070        -0.222407        -1.195609
 O         3.462832        -1.463465        -1.098543
 C         2.799408        -0.926155         0.117263
 C         3.088803         1.405234         0.877094
 O         1.910668         0.657088         1.388600
 H         0.447125        -1.451674         1.335149
 H        -0.637717        -0.107924         0.845948
 H        -0.009919        -1.413345        -0.335827
 H         1.880725         0.355747        -2.043245
 H         1.739098         1.887527        -0.974692
 H         4.639296        -0.047310        -2.229282
 H         5.194891        -0.518983        -0.661542
 H         3.012247        -1.663895         1.025286
 H         3.860566         1.468568         1.715119
 H         2.886383         2.523484         0.588514
