19
Iteration:  1310charge 0 multiplicity 1
 C         0.230751        -0.805058         0.611928
 C         1.485305        -0.207699         0.173693
 C         2.085783         0.196431        -1.275065
 C         3.329713         0.477449        -0.395895
 C         4.458687        -0.388984        -0.835414
 O         3.826465        -1.668738        -0.309510
 C         2.846257        -0.673679         0.509732
 C         2.908107         1.762877         0.277887
 O         1.547654         1.197853         0.842994
 H        -0.254030        -0.247552         1.448431
 H        -0.405356        -0.824112        -0.301823
 H         0.370829        -1.826905         0.987561
 H         2.146345        -0.777369        -1.857842
 H         1.649243         0.993058        -1.825762
 H         4.467781        -0.445765        -1.985890
 H         5.470856        -0.176674        -0.387088
 H         3.189734        -0.821174         1.506190
 H         3.755896         1.997772         1.067898
 H         2.641044         2.511497        -0.417369
