19
Iteration:   499
 C         0.211986        -0.725303         0.637052
 C         1.530918        -0.224409         0.182809
 C         2.086291        -0.493370        -1.201263
 C         3.321492         0.336482        -0.518386
 C         4.612702        -0.398001        -0.525440
 O         4.060277        -1.433913         0.425413
 C         2.956373        -0.347939         0.773555
 C         2.604113         1.774981        -0.373851
 O         1.368510         1.307570         0.167922
 H         0.191616        -1.842286         0.596685
 H         0.114849        -0.309096         1.740670
 H        -0.568905        -0.310580        -0.043810
 H         2.212873        -1.566644        -1.406551
 H         1.505967         0.034662        -1.987930
 H         5.003936        -0.689068        -1.576658
 H         5.427504         0.097481         0.072115
 H         3.061352         0.125895         1.796876
 H         2.998469         2.338565         0.566475
 H         2.463894         2.264737        -1.372685
