19
Iteration:  3089charge 0 multiplicity 1
 C         0.168692        -0.677590         0.533301
 C         1.523866        -0.117670         0.248886
 C         1.874486         0.897577        -0.866286
 C         3.303630         0.591900        -0.308813
 C         4.300656        -0.149928        -1.214054
 O         3.459755        -1.287615        -1.269245
 C         2.800789        -0.930874        -0.073103
 C         3.301508         1.119187         1.079190
 O         1.979753         0.471626         1.461138
 H        -0.257475        -1.187279        -0.302459
 H         0.151136        -1.400936         1.354400
 H        -0.449329         0.175136         0.704292
 H         1.608784         0.441458        -1.960894
 H         1.451978         2.013130        -0.658462
 H         4.285598         0.277402        -2.245830
 H         5.358950        -0.330278        -0.817923
 H         3.336752        -1.375992         0.790117
 H         4.175555         0.700453         1.549756
 H         3.178191         2.123617         1.284315
