19
Iteration:  3588
 C         0.109676        -0.620394         0.416248
 C         1.565324        -0.184468         0.291069
 C         1.928191         0.944289        -0.688019
 C         3.304194         0.466725        -0.227429
 C         4.256423        -0.003432        -1.286854
 O         3.311465        -1.055963        -1.629518
 C         2.778851        -0.997080        -0.109240
 C         3.378803         0.999407         1.232384
 O         2.090522         0.318754         1.632077
 H        -0.206452        -0.646826         1.483148
 H        -0.488643        -0.014631        -0.345924
 H        -0.080418        -1.748211         0.253928
 H         1.519380         0.898791        -1.634666
 H         1.619925         1.986101        -0.252651
 H         4.427616         0.587790        -2.151508
 H         5.255410        -0.349490        -0.963742
 H         3.245539        -1.794878         0.482784
 H         4.278188         0.682666         1.694426
 H         3.295181         2.104856         1.407643
