19
Iteration:  1939
 C         0.234385        -0.798258         0.582299
 C         1.534064        -0.178420         0.206803
 C         1.897239         0.536990        -1.116693
 C         3.411458         0.455248        -0.265123
 C         4.433631        -0.301615        -1.075323
 O         3.662854        -1.613941        -0.793914
 C         2.833331        -0.938367         0.290180
 C         3.003904         1.646406         0.658460
 O         1.740273         1.029227         1.119082
 H         0.321851        -1.819849         1.056701
 H        -0.164947        -0.118984         1.402604
 H        -0.482898        -0.908002        -0.294445
 H         1.834891         0.067031        -2.024581
 H         1.441987         1.554638        -1.327322
 H         4.494566         0.076789        -2.094205
 H         5.448153        -0.376099        -0.642481
 H         2.925156        -1.312689         1.279884
 H         3.736395         1.677259         1.584718
 H         2.976103         2.626847         0.053184
