19
Iteration:   647
 C         0.068667        -0.808076         0.623285
 C         1.505137        -0.242249         0.214763
 C         2.000789        -0.332335        -1.234739
 C         3.270474         0.378473        -0.683290
 C         4.584228        -0.369127        -0.534409
 O         4.053867        -1.413882         0.342656
 C         2.915837        -0.447886         0.751388
 C         2.798414         1.767790        -0.256960
 O         1.496066         1.261113         0.319761
 H        -0.445934        -1.086861        -0.324553
 H         0.108628        -1.638401         1.321234
 H        -0.427291         0.000074         1.221599
 H         2.203303        -1.452275        -1.551253
 H         1.402833         0.185971        -2.088427
 H         5.086394        -0.764428        -1.442679
 H         5.324934         0.252551         0.084512
 H         3.281117         0.087324         1.621576
 H         3.551188         2.101616         0.600882
 H         2.552198         2.589789        -1.028945
