19
Iteration:  1586charge 0 multiplicity 1
 C         0.157914        -0.729854         0.592601
 C         1.504759        -0.213077         0.141559
 C         1.965725         0.288767        -1.279295
 C         3.313918         0.612886        -0.537050
 C         4.496905        -0.431706        -0.938632
 O         3.705767        -1.557832        -0.444989
 C         2.982289        -0.713010         0.343414
 C         2.906530         1.669884         0.562344
 O         1.711994         0.963209         1.083861
 H        -0.591100        -0.441881        -0.141651
 H         0.135604        -1.834696         0.788248
 H        -0.176977        -0.272444         1.602908
 H         1.999407        -0.558957        -1.889088
 H         1.453873         1.088347        -1.842330
 H         4.472570        -0.431902        -2.062871
 H         5.482231        -0.270228        -0.461450
 H         3.328470        -0.714031         1.352113
 H         3.741453         1.776945         1.418957
 H         2.691429         2.545406        -0.035571
