19
Iteration:    64
 C         0.210482        -0.721329         0.731800
 C         1.555324        -0.289572         0.156264
 C         2.354087        -0.716978        -1.216292
 C         3.331023         0.306533        -0.627578
 C         4.677211        -0.408579        -0.321615
 O         3.910948        -1.110273         0.770948
 C         2.939508        -0.068393         0.794596
 C         2.542941         1.584412        -0.696231
 O         1.252415         1.206688        -0.024667
 H        -0.544067        -0.408302        -0.061947
 H         0.267861        -1.788482         1.005701
 H        -0.061658        -0.112360         1.629690
 H         2.755697        -1.722102        -1.166625
 H         1.855722        -0.479717        -2.193806
 H         5.004412        -1.166975        -1.138016
 H         5.573855         0.103478         0.026896
 H         2.986133         0.646561         1.598436
 H         3.056994         2.399323        -0.229999
 H         2.313424         1.952651        -1.683427
