19
Iteration:  3033
 C         0.200747        -0.770526         0.423519
 C         1.509039        -0.096676         0.271062
 C         1.993092         0.836109        -0.716735
 C         3.405000         0.423475        -0.223926
 C         4.300204        -0.073452        -1.372803
 O         3.361043        -1.359541        -1.367991
 C         2.867662        -0.948329         0.044772
 C         3.230981         1.184744         1.068894
 O         1.903433         0.666395         1.506032
 H        -0.512669        -0.273651        -0.259774
 H         0.241936        -1.806088         0.307077
 H        -0.270441        -0.553300         1.421568
 H         1.710845         0.617690        -1.830697
 H         1.613137         2.061506        -0.474821
 H         4.360181         0.284461        -2.412792
 H         5.367922        -0.272276        -0.971389
 H         3.208845        -1.674159         0.851561
 H         4.025136         1.017740         1.791252
 H         3.095997         2.197071         0.990220
