19
Iteration:   329charge 0 multiplicity 1
 C         0.196278        -0.814445         0.673391
 C         1.499486        -0.284674         0.113971
 C         2.110539        -0.505910        -1.265732
 C         3.287434         0.331835        -0.540805
 C         4.605569        -0.362238        -0.442483
 O         3.994145        -1.217062         0.650161
 C         2.919546        -0.306729         0.762236
 C         2.678455         1.657224        -0.600147
 O         1.434140         1.300625         0.208053
 H         0.473945        -1.458179         1.504990
 H        -0.336222         0.023933         1.115582
 H        -0.439035        -1.304249        -0.035271
 H         2.578059        -1.466944        -1.348031
 H         1.660451        -0.135266        -2.175090
 H         4.766790        -0.947882        -1.304241
 H         5.528542         0.143273        -0.146723
 H         2.941166         0.086435         1.723238
 H         3.257037         2.419186        -0.218185
 H         2.305382         1.922566        -1.670084
