19
Iteration:  3552charge 0 multiplicity 1
 C         0.069786        -0.616182         0.515394
 C         1.483422        -0.161846         0.269337
 C         1.927469         0.945539        -0.743344
 C         3.406253         0.557554        -0.210795
 C         4.249309         0.036191        -1.415974
 O         3.393595        -1.151095        -1.562555
 C         2.833788        -0.951432        -0.119496
 C         3.367261         0.916959         1.322926
 O         2.020134         0.328166         1.577335
 H        -0.013733        -1.026300         1.521069
 H        -0.717065         0.324636         0.641145
 H        -0.180298        -1.234996        -0.389373
 H         1.715294         0.598953        -1.771770
 H         1.690599         1.917149        -0.522055
 H         4.078805         0.662113        -2.321965
 H         5.285870        -0.244728        -1.278241
 H         3.323998        -1.708551         0.495679
 H         4.058553         0.437418         1.927978
 H         3.248736         1.890528         1.597481
