19
Iteration:  4366charge 0 multiplicity 1
 C         0.121128        -0.637946         0.388097
 C         1.549771        -0.211355         0.334999
 C         1.981506         0.972500        -0.651003
 C         3.334522         0.581642        -0.190886
 C         4.189228        -0.029578        -1.353082
 O         3.214961        -1.048186        -1.623993
 C         2.895630        -0.911949        -0.188234
 C         3.394012         0.898123         1.266038
 O         2.067219         0.304282         1.656468
 H        -0.338350        -0.237882        -0.562886
 H         0.103782        -1.763297         0.371693
 H        -0.502584        -0.156948         1.300509
 H         1.854334         0.755902        -1.580153
 H         1.608419         1.988057        -0.426554
 H         4.316277         0.503275        -2.300687
 H         5.161599        -0.551932        -1.121418
 H         3.294075        -1.645955         0.558623
 H         4.161848         0.325385         1.907054
 H         3.388146         1.923905         1.617301
