19
Iteration:  3022
 C         0.189747        -0.752581         0.432135
 C         1.552273        -0.184485         0.252106
 C         1.988709         0.866272        -0.781097
 C         3.357152         0.495473        -0.259234
 C         4.303421        -0.074824        -1.276853
 O         3.328903        -1.377670        -1.312111
 C         2.830936        -0.935746        -0.045846
 C         3.234042         1.214624         1.109314
 O         1.966401         0.629509         1.484944
 H        -0.612948        -0.259332        -0.118784
 H         0.149288        -1.771416         0.184893
 H         0.092831        -0.674106         1.507934
 H         1.807646         0.490257        -1.846417
 H         1.602691         2.048220        -0.585598
 H         4.248748         0.496358        -2.213328
 H         5.323452        -0.510682        -1.036917
 H         3.242397        -1.445409         0.867634
 H         3.927120         0.977041         1.916587
 H         3.171399         2.246841         0.949626
