19
Iteration:  4117charge 0 multiplicity 1
 C         0.072969        -0.698121         0.360366
 C         1.521833        -0.095426         0.343119
 C         1.952408         1.007805        -0.585368
 C         3.429721         0.460530        -0.162900
 C         4.251649         0.031482        -1.379283
 O         3.216798        -1.078157        -1.586571
 C         2.783697        -0.934161        -0.207525
 C         3.397373         0.912778         1.263115
 O         2.120510         0.289266         1.628383
 H        -0.099443        -0.846972        -0.739548
 H         0.108901        -1.685134         0.785180
 H        -0.656897        -0.069014         0.826224
 H         1.699196         0.817946        -1.575880
 H         1.678737         2.118717        -0.201170
 H         4.282413         0.692795        -2.203786
 H         5.248939        -0.396834        -1.156290
 H         3.082387        -1.720328         0.466139
 H         4.238277         0.614400         1.851711
 H         3.259039         2.049582         1.257688
