19
Iteration:  4756charge 0 multiplicity 1
 C         0.102400        -0.583702         0.500474
 C         1.493484        -0.125699         0.256460
 C         1.921477         1.051399        -0.634985
 C         3.351088         0.537120        -0.203144
 C         4.210850         0.077185        -1.370710
 O         3.356979        -1.142388        -1.531944
 C         2.782936        -0.904045        -0.186443
 C         3.361947         0.817467         1.259583
 O         2.119350         0.193399         1.528764
 H        -0.462409        -0.348539        -0.451119
 H         0.219149        -1.727522         0.818576
 H        -0.407227         0.170914         1.307578
 H         1.632163         0.744078        -1.703339
 H         1.619384         2.013343        -0.333501
 H         4.239117         0.588847        -2.370861
 H         5.272698        -0.108249        -1.082953
 H         3.174371        -1.629479         0.610966
 H         4.197653         0.331780         1.738148
 H         3.359967         1.878752         1.613549
