19
Iteration:   144charge 0 multiplicity 1
 C         0.288858        -0.781831         0.733327
 C         1.540465        -0.283459         0.159476
 C         2.153658        -0.689712        -1.225947
 C         3.303161         0.275404        -0.704275
 C         4.632470        -0.394029        -0.279530
 O         3.931893        -1.126177         0.741077
 C         2.946651        -0.159937         0.739216
 C         2.608802         1.681486        -0.670853
 O         1.364090         1.243746         0.041099
 H         0.333307        -1.436097         1.573544
 H        -0.380021         0.079478         0.987505
 H        -0.225144        -1.220081        -0.142119
 H         2.459164        -1.734028        -1.404936
 H         1.611753        -0.308630        -2.061913
 H         5.085893        -1.049471        -0.981084
 H         5.354364         0.318159         0.226213
 H         2.929596         0.479676         1.603912
 H         3.139055         2.395726        -0.165588
 H         2.421948         2.018413        -1.589877
