19
Iteration:  2328charge 0 multiplicity 1
 C         0.128098        -0.730378         0.577929
 C         1.473633        -0.147398         0.174810
 C         1.978881         0.710439        -0.996995
 C         3.372316         0.479739        -0.279024
 C         4.393807        -0.265492        -1.262624
 O         3.637745        -1.480935        -0.981480
 C         2.829395        -0.908293         0.143991
 C         3.142458         1.413035         0.841959
 O         1.800303         0.811353         1.321217
 H        -0.789433         0.003901         0.581412
 H        -0.137325        -1.695298        -0.037606
 H         0.189755        -1.061660         1.655734
 H         1.776225         0.399790        -2.005402
 H         1.651990         1.685281        -0.703762
 H         4.412169         0.041914        -2.375974
 H         5.496211        -0.466558        -0.962711
 H         3.019606        -1.397175         1.053481
 H         3.803174         1.260703         1.824569
 H         2.905170         2.498072         0.692964
