19
Iteration:  2129
 C         0.248319        -0.710988         0.545260
 C         1.615724        -0.152382         0.138166
 C         1.978107         0.547949        -1.141634
 C         3.348677         0.602347        -0.332294
 C         4.285650        -0.300050        -1.165494
 O         3.518476        -1.506019        -0.830026
 C         2.944692        -0.823539         0.282465
 C         3.069768         1.453867         0.900193
 O         1.757227         0.800412         1.173446
 H        -0.238804        -1.196713        -0.394203
 H         0.374511        -1.548179         1.255067
 H        -0.408271         0.052651         1.017983
 H         1.902487         0.035131        -2.096604
 H         1.522130         1.490847        -1.292670
 H         4.418484        -0.167755        -2.229444
 H         5.298378        -0.335663        -0.727438
 H         3.133274        -1.140188         1.284062
 H         3.833069         1.364478         1.771609
 H         3.015524         2.505065         0.758729
