19
Iteration:    30
 C         0.162394        -0.908073         0.736972
 C         1.452739        -0.242583         0.201300
 C         2.061302        -0.730724        -1.170417
 C         3.235014         0.270559        -0.588027
 C         4.646628        -0.267729        -0.216208
 O         4.071264        -1.089614         0.773471
 C         2.935378        -0.169863         0.848653
 C         2.756599         1.617162        -0.800219
 O         1.409805         1.330325        -0.186232
 H        -0.821447        -0.307628         0.828873
 H        -0.212895        -1.647855        -0.019137
 H         0.410088        -1.423831         1.694049
 H         2.427990        -1.780186        -1.180995
 H         1.413680        -0.511340        -2.074545
 H         5.093394        -0.942664        -1.065490
 H         5.311043         0.495393         0.213071
 H         3.046349         0.509947         1.695001
 H         3.242326         2.407886        -0.195723
 H         2.550799         1.732168        -1.860931
