19
Iteration:  1798charge 0 multiplicity 1
 C         0.148099        -0.871703         0.584031
 C         1.483218        -0.149526         0.145155
 C         1.899588         0.402581        -1.136595
 C         3.353762         0.560428        -0.441428
 C         4.453506        -0.373295        -1.000233
 O         3.683409        -1.548662        -0.668306
 C         2.887085        -0.751922         0.363705
 C         3.056611         1.579263         0.641957
 O         1.747472         1.070932         1.063119
 H        -0.748052        -0.265074         0.778212
 H        -0.058363        -1.640418        -0.176096
 H         0.291769        -1.410132         1.540576
 H         1.816062        -0.356268        -1.866622
 H         1.458994         1.399168        -1.459629
 H         4.622144        -0.442588        -2.071262
 H         5.400309        -0.229667        -0.418862
 H         3.312766        -0.984681         1.344988
 H         3.845630         1.487410         1.435994
 H         2.937586         2.522695         0.258955
