19
Iteration:  4724charge 0 multiplicity 1
 C         0.123060        -0.685107         0.436724
 C         1.478616        -0.066233         0.280676
 C         1.930439         1.088136        -0.604618
 C         3.394778         0.473735        -0.165730
 C         4.278636         0.032720        -1.429665
 O         3.254483        -1.083270        -1.556765
 C         2.792149        -0.942477        -0.169121
 C         3.413196         0.791932         1.270654
 O         2.075843         0.320787         1.557588
 H        -0.221489        -1.094639        -0.529238
 H         0.225384        -1.665583         1.037016
 H        -0.745829        -0.191832         1.036980
 H         1.570223         1.067826        -1.659883
 H         1.688131         2.047950        -0.312167
 H         4.289942         0.670607        -2.333708
 H         5.222895        -0.190945        -1.068792
 H         3.186368        -1.657245         0.696418
 H         4.210033         0.184947         1.727434
 H         3.512112         1.891722         1.517028
