19
Iteration:   636charge 0 multiplicity 1
 C         0.101939        -0.766401         0.653082
 C         1.448235        -0.210187         0.180723
 C         2.023130        -0.304715        -1.251445
 C         3.273239         0.347880        -0.591024
 C         4.595464        -0.412366        -0.518745
 O         4.067399        -1.370273         0.343840
 C         2.990104        -0.427825         0.679501
 C         2.784407         1.671225        -0.262182
 O         1.450812         1.255884         0.336662
 H        -0.664690        -0.675059        -0.154543
 H         0.206524        -1.805207         0.934192
 H        -0.362853        -0.131171         1.462924
 H         2.383022        -1.355758        -1.637672
 H         1.526440         0.319977        -2.095524
 H         5.013037        -0.946989        -1.392834
 H         5.411080         0.242644        -0.047074
 H         3.002544        -0.141080         1.722411
 H         3.324500         2.459166         0.400877
 H         2.431761         2.283292        -1.183545
