19
Iteration:  4630charge 0 multiplicity 1
 C         0.063605        -0.623154         0.507910
 C         1.465488        -0.157331         0.253735
 C         1.854746         1.058867        -0.547025
 C         3.373712         0.536031        -0.247786
 C         4.261384         0.052678        -1.407706
 O         3.401956        -1.136860        -1.536189
 C         2.779374        -0.882262        -0.217598
 C         3.460268         0.754116         1.260790
 O         2.093154         0.306126         1.562337
 H        -0.308007        -1.070956        -0.436471
 H        -0.234134        -1.254409         1.308839
 H        -0.464805         0.266275         0.660106
 H         1.765816         0.937223        -1.608776
 H         1.257433         2.042517        -0.415360
 H         4.094026         0.669274        -2.259790
 H         5.325729        -0.209539        -1.240061
 H         3.087654        -1.587491         0.390824
 H         4.128415         0.093614         1.839358
 H         3.484748         1.708671         1.668234
