19
Iteration:  2387charge 0 multiplicity 1
 C         0.124285        -0.720484         0.488604
 C         1.502464        -0.162175         0.221087
 C         1.929298         0.657412        -1.038919
 C         3.379501         0.544772        -0.329760
 C         4.348960        -0.258341        -1.177578
 O         3.517791        -1.432232        -0.995328
 C         2.897126        -0.845211         0.175412
 C         3.116043         1.414115         0.875866
 O         1.941266         0.700817         1.356716
 H        -0.512219        -0.431132        -0.288389
 H         0.000558        -1.776163         0.630903
 H        -0.216674        -0.213214         1.385317
 H         1.712026         0.041667        -1.975172
 H         1.406382         1.666883        -1.158111
 H         4.482218        -0.032939        -2.250449
 H         5.291915        -0.483665        -0.678307
 H         3.277801        -1.283568         1.122682
 H         3.989124         1.370730         1.632624
 H         2.812112         2.457206         0.783183
