19
Iteration:  4827charge 0 multiplicity 1
 C         0.155863        -0.772214         0.442271
 C         1.494259        -0.134222         0.244241
 C         2.005417         1.103219        -0.614774
 C         3.380548         0.555455        -0.220728
 C         4.262635        -0.035957        -1.414502
 O         3.198319        -1.046876        -1.541602
 C         2.746177        -0.847109        -0.148915
 C         3.407900         0.819205         1.267012
 O         2.053271         0.280190         1.575532
 H        -0.188243        -1.356157        -0.405870
 H         0.292946        -1.338478         1.298918
 H        -0.541201        -0.028491         0.576648
 H         1.934427         0.962741        -1.683729
 H         1.806310         2.135779        -0.205977
 H         4.395627         0.660089        -2.214314
 H         5.206417        -0.341020        -1.091134
 H         3.117463        -1.604159         0.648409
 H         4.159298         0.207446         1.870120
 H         3.504958         1.883339         1.558885
