19
Iteration:  2466
 C         0.199864        -0.703605         0.476645
 C         1.510778        -0.144839         0.282926
 C         1.844690         0.618642        -1.016604
 C         3.315315         0.594131        -0.396876
 C         4.383399        -0.268184        -1.122438
 O         3.481754        -1.431111        -1.094831
 C         2.887930        -0.845346         0.128050
 C         3.194218         1.347681         0.931643
 O         1.894981         0.761998         1.403028
 H         0.265267        -1.622323        -0.094702
 H         0.045463        -0.881359         1.446786
 H        -0.520960        -0.113173        -0.008787
 H         1.738399         0.025548        -1.924914
 H         1.311320         1.685462        -1.101451
 H         4.569372        -0.196331        -2.163200
 H         5.306584        -0.486314        -0.613048
 H         3.338754        -1.257376         1.096860
 H         3.975096         1.075303         1.668802
 H         3.061710         2.474065         0.924406
