19
Iteration:  2778
 C         0.054496        -0.718930         0.499051
 C         1.536331        -0.183941         0.219117
 C         1.962151         0.753389        -0.963909
 C         3.374132         0.584513        -0.350833
 C         4.317575        -0.185341        -1.260050
 O         3.483180        -1.355743        -1.163915
 C         2.842756        -0.862398         0.074600
 C         3.234458         1.265637         0.996880
 O         1.921582         0.585714         1.517647
 H        -0.465732        -0.899484        -0.439368
 H         0.187958        -1.656437         1.066514
 H        -0.559271        -0.072760         1.126693
 H         1.884846         0.276913        -1.998956
 H         1.663797         1.868678        -1.002363
 H         4.344549         0.200002        -2.316410
 H         5.356987        -0.292525        -0.826840
 H         3.325179        -1.311253         1.030438
 H         4.108810         1.180703         1.721518
 H         2.969313         2.362728         0.962877
