19
Iteration:  1525charge 0 multiplicity 1
 C         0.150565        -0.859847         0.567019
 C         1.506041        -0.191765         0.162360
 C         2.008601         0.243245        -1.165165
 C         3.388228         0.528979        -0.408882
 C         4.483966        -0.386896        -0.979114
 O         3.689765        -1.592002        -0.535884
 C         2.908431        -0.691674         0.499347
 C         2.954128         1.688512         0.529143
 O         1.664633         1.151566         0.918228
 H        -0.345538        -0.168870         1.302245
 H        -0.548948        -1.010134        -0.255391
 H         0.421866        -1.700513         1.138512
 H         1.887072        -0.779204        -1.761672
 H         1.601191         1.158643        -1.587200
 H         4.664938        -0.484731        -2.046491
 H         5.498715        -0.396289        -0.549442
 H         3.226828        -0.951929         1.572475
 H         3.512043         1.961733         1.417329
 H         2.767561         2.637549        -0.239520
