19
Iteration:   730charge 0 multiplicity 1
 C         0.269979        -0.877747         0.654715
 C         1.495481        -0.152128         0.156997
 C         2.082470        -0.267205        -1.243734
 C         3.321962         0.439736        -0.599882
 C         4.544798        -0.437345        -0.609055
 O         3.817333        -1.487249         0.243648
 C         2.911785        -0.413689         0.733482
 C         2.803412         1.786347        -0.154836
 O         1.469269         1.261912         0.347184
 H         0.345910        -0.837196         1.761302
 H        -0.646437        -0.333551         0.523763
 H         0.220279        -1.929879         0.311967
 H         2.326282        -1.229647        -1.651221
 H         1.709062         0.361905        -1.981506
 H         4.950679        -0.833892        -1.543384
 H         5.284775         0.038148        -0.012172
 H         3.157528        -0.225254         1.805097
 H         3.464135         2.259177         0.520606
 H         2.593035         2.591923        -0.871163
