19
Iteration:  1036
 C         0.285901        -0.801183         0.612052
 C         1.514223        -0.182643         0.153862
 C         2.037699        -0.041889        -1.277035
 C         3.299942         0.473479        -0.468897
 C         4.483950        -0.396063        -0.735599
 O         3.754403        -1.549911        -0.033626
 C         2.974263        -0.547623         0.574723
 C         2.872484         1.744771         0.077226
 O         1.517931         1.201190         0.642361
 H         0.512031        -1.829954         0.865049
 H        -0.116247        -0.245473         1.448966
 H        -0.456869        -0.764730        -0.169038
 H         2.184687        -1.046711        -1.637309
 H         1.548737         0.615862        -2.039735
 H         4.773385        -0.547220        -1.832865
 H         5.454239        -0.328011        -0.185537
 H         3.240338        -0.608941         1.659918
 H         3.470787         1.965605         0.987974
 H         2.561015         2.573603        -0.502187
