19
Iteration:  1794charge 0 multiplicity 1
 C         0.169298        -0.878756         0.594021
 C         1.454002        -0.175584         0.171106
 C         1.921110         0.451379        -1.138504
 C         3.359815         0.560221        -0.431252
 C         4.464076        -0.348718        -1.015394
 O         3.708749        -1.599309        -0.652631
 C         2.872484        -0.772638         0.337340
 C         3.025500         1.590028         0.613854
 O         1.756773         1.084498         1.075187
 H        -0.699994        -0.164900         0.850988
 H        -0.103203        -1.541261        -0.263950
 H         0.252865        -1.511812         1.491504
 H         1.716835        -0.346771        -1.943619
 H         1.540563         1.377310        -1.411270
 H         4.594681        -0.460553        -2.098099
 H         5.336198        -0.268494        -0.410495
 H         3.201008        -1.040344         1.331731
 H         3.755704         1.552672         1.463863
 H         2.920045         2.714458         0.218161
