19
Iteration:  1458
 C         0.025736        -0.877206         0.534880
 C         1.447735        -0.163211         0.234072
 C         1.977707         0.217324        -1.206226
 C         3.354075         0.405957        -0.460286
 C         4.496393        -0.369345        -0.882387
 O         3.818786        -1.575184        -0.489597
 C         2.922810        -0.668227         0.506176
 C         3.072324         1.653745         0.373136
 O         1.622015         1.205295         0.970542
 H         0.173500        -1.737312         1.174328
 H        -0.670514        -0.225119         1.082083
 H        -0.383366        -1.342980        -0.353956
 H         1.987914        -0.622493        -1.944422
 H         1.454294         1.129802        -1.678969
 H         4.736468        -0.382425        -1.924883
 H         5.371987         0.087442        -0.389522
 H         3.164212        -0.754340         1.612572
 H         3.778330         1.787662         1.187458
 H         2.930887         2.773372        -0.083686
