19
Iteration:   705charge 0 multiplicity 1
 C         0.261040        -0.859078         0.690323
 C         1.529308        -0.275158         0.146046
 C         2.065396        -0.162977        -1.309544
 C         3.386428         0.447397        -0.440031
 C         4.614320        -0.516548        -0.611567
 O         3.859974        -1.483458         0.296050
 C         2.932722        -0.471966         0.702294
 C         2.648639         1.800167        -0.192260
 O         1.442648         1.306443         0.328964
 H         0.393323        -1.585564         1.495306
 H        -0.206737         0.039821         1.262149
 H        -0.442751        -1.198576        -0.061093
 H         2.374022        -1.104117        -1.742156
 H         1.644352         0.653709        -2.049636
 H         4.822540        -0.857227        -1.639468
 H         5.570885        -0.223300        -0.146703
 H         3.235085        -0.091581         1.711896
 H         3.176442         2.683146         0.256296
 H         2.488869         2.162236        -1.332773
