19
Iteration:   832charge 0 multiplicity 1
 C         0.156819        -0.831251         0.612614
 C         1.518505        -0.162609         0.181490
 C         2.063447        -0.269655        -1.296506
 C         3.287442         0.389831        -0.560530
 C         4.524068        -0.420092        -0.621312
 O         3.897148        -1.508922         0.087039
 C         2.956032        -0.404823         0.707527
 C         2.857236         1.765555        -0.027705
 O         1.479292         1.283460         0.481069
 H        -0.076537        -1.717911        -0.031427
 H         0.168574        -1.169859         1.692324
 H        -0.708505        -0.128847         0.424792
 H         2.114972        -1.344899        -1.485276
 H         1.519569         0.420250        -2.003490
 H         4.820557        -0.611242        -1.650360
 H         5.434915        -0.030812        -0.099095
 H         3.275004         0.026735         1.660719
 H         3.574799         2.007916         0.851315
 H         2.646386         2.543621        -0.825352
