19
Iteration:  3593
 C         0.141298        -0.645272         0.415735
 C         1.568279        -0.164314         0.307401
 C         1.909897         0.972888        -0.700351
 C         3.325781         0.493594        -0.216946
 C         4.261366        -0.028165        -1.328386
 O         3.281288        -1.070671        -1.630009
 C         2.795686        -0.962558        -0.117000
 C         3.343335         0.997783         1.266451
 O         2.096770         0.299475         1.620932
 H        -0.275169        -0.429724         1.416682
 H        -0.570926        -0.167161        -0.246117
 H         0.077418        -1.674521         0.239578
 H         1.587424         0.724023        -1.813587
 H         1.570031         1.923599        -0.271779
 H         4.572890         0.651344        -2.194887
 H         5.214618        -0.389744        -0.850175
 H         3.137875        -1.730779         0.605674
 H         4.314808         0.510375         1.773697
 H         3.328452         2.126291         1.514010
