19
Iteration:  3675
 C         0.021741        -0.636986         0.416555
 C         1.527681        -0.147277         0.312051
 C         1.971335         0.915417        -0.676293
 C         3.387697         0.516914        -0.216416
 C         4.290367         0.066013        -1.426258
 O         3.226989        -1.046667        -1.594415
 C         2.869497        -0.946438        -0.121859
 C         3.381160         0.861495         1.273487
 O         2.075491         0.331289         1.653833
 H        -0.808435         0.018073        -0.023595
 H         0.204349        -1.748091        -0.115593
 H        -0.335040        -0.800169         1.567972
 H         1.773825         0.765133        -1.648850
 H         1.650920         1.929517        -0.352028
 H         4.398810         0.637656        -2.346594
 H         5.238699        -0.302224        -0.987217
 H         3.204312        -1.739621         0.552522
 H         4.214513         0.419285         1.776319
 H         3.377810         1.893016         1.445062
