19
Iteration:  3169charge 0 multiplicity 1
 C         0.110676        -0.778047         0.433488
 C         1.540151        -0.141677         0.264220
 C         1.951301         0.890862        -0.778578
 C         3.385564         0.585989        -0.261094
 C         4.248242        -0.150539        -1.358671
 O         3.365896        -1.292076        -1.298875
 C         2.848049        -0.836662        -0.056984
 C         3.303269         1.085677         1.152793
 O         1.979752         0.554661         1.548002
 H         0.056201        -1.813247         0.691462
 H        -0.535687        -0.158510         1.011269
 H        -0.345130        -0.689673        -0.501937
 H         1.917533         0.547525        -1.975203
 H         1.601134         1.942448        -0.601303
 H         4.315801         0.441581        -2.332523
 H         5.256331        -0.465521        -1.047230
 H         3.242576        -1.498139         0.724789
 H         4.095058         0.630800         1.715459
 H         3.372216         2.169745         1.151065
