19
Iteration:   272charge 0 multiplicity 1
 C         0.269070        -0.796700         0.766477
 C         1.486170        -0.233234         0.152990
 C         2.221039        -0.581947        -1.187019
 C         3.325312         0.353949        -0.523308
 C         4.610642        -0.427560        -0.430241
 O         3.957598        -1.260097         0.568401
 C         2.868234        -0.174244         0.840614
 C         2.633399         1.735769        -0.549123
 O         1.354415         1.242508        -0.047231
 H        -0.173863        -1.501778         0.123104
 H         0.493199        -1.330856         1.722392
 H        -0.484432        -0.025194         0.935734
 H         2.571678        -1.618435        -1.342971
 H         1.845904        -0.184548        -2.119010
 H         4.969249        -0.978934        -1.334588
 H         5.449071         0.124839        -0.046746
 H         2.952952         0.083254         1.897371
 H         3.226651         2.311023         0.155959
 H         2.342417         2.090987        -1.603489
