19
Iteration:  1219
 C         0.185143        -0.825108         0.554764
 C         1.545567        -0.235851         0.149908
 C         2.030438         0.091864        -1.256591
 C         3.320587         0.509555        -0.450955
 C         4.439138        -0.452092        -0.856211
 O         3.786038        -1.562153        -0.195910
 C         3.025695        -0.640622         0.619805
 C         2.892666         1.782917         0.228001
 O         1.577635         1.212906         0.778598
 H        -0.060809        -1.746405        -0.033527
 H         0.086235        -1.004021         1.643963
 H        -0.729901        -0.190658         0.332251
 H         2.118039        -0.803987        -1.799814
 H         1.473642         0.889815        -1.821857
 H         4.650293        -0.738225        -1.890504
 H         5.440505        -0.275804        -0.297398
 H         2.992489        -0.763028         1.700843
 H         3.557111         2.119717         1.044413
 H         2.542930         2.521686        -0.493923
