19
Iteration:   739charge 0 multiplicity 1
 C         0.246607        -0.884897         0.673366
 C         1.481005        -0.175815         0.157309
 C         2.093458        -0.281586        -1.276521
 C         3.290877         0.410126        -0.632131
 C         4.553122        -0.397259        -0.617589
 O         3.803482        -1.469637         0.244393
 C         2.925350        -0.439157         0.677632
 C         2.831474         1.741737        -0.079077
 O         1.503551         1.338215         0.382119
 H         0.080883        -0.658518         1.724060
 H        -0.660418        -0.553046         0.050003
 H         0.439224        -1.946423         0.590039
 H         2.235073        -1.339780        -1.363600
 H         1.641407         0.037563        -2.249265
 H         5.015087        -0.777990        -1.539072
 H         5.273516         0.017862         0.072220
 H         3.262332         0.082985         1.609404
 H         3.378943         2.232067         0.720345
 H         2.510168         2.525328        -0.903728
