19
Iteration:  1364
 C         0.258868        -0.878381         0.463741
 C         1.504963        -0.136933         0.230513
 C         1.938700         0.166636        -1.232288
 C         3.250954         0.478265        -0.504907
 C         4.451311        -0.366453        -0.848530
 O         3.698901        -1.571509        -0.303609
 C         2.963737        -0.665369         0.496559
 C         2.919122         1.640248         0.396830
 O         1.703415         1.217875         0.859366
 H        -0.622840        -0.583782        -0.234129
 H         0.365755        -2.009628         0.441200
 H        -0.132455        -0.533108         1.441939
 H         1.917379        -0.821740        -1.804659
 H         1.396925         0.902739        -1.759799
 H         4.924953        -0.649023        -1.831161
 H         5.339556        -0.041939        -0.187370
 H         3.460265        -0.626349         1.457856
 H         3.735787         1.778774         1.276972
 H         2.878014         2.575197        -0.146168
