19
Iteration:  1647charge 0 multiplicity 1
 C         0.229229        -0.875502         0.514649
 C         1.502760        -0.153335         0.211995
 C         1.933608         0.266030        -1.118966
 C         3.294235         0.466855        -0.459722
 C         4.433360        -0.373423        -0.947263
 O         3.649641        -1.560210        -0.662409
 C         2.947109        -0.710107         0.495444
 C         3.064493         1.636114         0.563202
 O         1.669856         1.162868         0.995174
 H         0.338257        -1.865611         0.089457
 H         0.048795        -1.004835         1.579835
 H        -0.617925        -0.395108         0.025566
 H         1.985622        -0.546466        -1.850743
 H         1.359977         1.158366        -1.516134
 H         4.602038        -0.273121        -2.022808
 H         5.410698        -0.265714        -0.427882
 H         3.431347        -0.814544         1.507400
 H         3.631967         1.719638         1.412627
 H         2.991331         2.750478         0.329531
