19
Iteration:  4330
 C         0.078482        -0.586305         0.523519
 C         1.512910        -0.153432         0.216831
 C         1.923118         1.038396        -0.621653
 C         3.362107         0.479579        -0.183807
 C         4.226082         0.006734        -1.319402
 O         3.358698        -1.064979        -1.593721
 C         2.759591        -0.944672        -0.218863
 C         3.365467         0.910295         1.234084
 O         2.105049         0.216856         1.579249
 H        -0.505495        -0.699333        -0.383413
 H         0.086551        -1.673601         0.906800
 H        -0.508722        -0.053179         1.326503
 H         1.964984         0.931530        -1.675715
 H         1.730641         2.029888        -0.355322
 H         4.192322         0.868062        -2.038666
 H         5.243463        -0.246872        -1.065333
 H         3.215887        -1.900818         0.413327
 H         4.194798         0.445425         1.827994
 H         3.387524         2.031284         1.257201
