19
Iteration:  4176charge 0 multiplicity 1
 C         0.053315        -0.676077         0.515309
 C         1.476467        -0.104739         0.224704
 C         1.914726         1.029015        -0.669522
 C         3.343052         0.481442        -0.238209
 C         4.291967         0.028921        -1.324395
 O         3.442297        -1.061140        -1.595630
 C         2.723303        -0.934167        -0.195867
 C         3.397377         0.778740         1.221161
 O         2.052412         0.359976         1.661414
 H        -0.895956        -0.559560        -0.203457
 H         0.040535        -1.809574         0.899677
 H        -0.373538        -0.052395         1.437545
 H         1.608984         0.852548        -1.782099
 H         1.699406         1.978519        -0.395181
 H         4.400411         0.708924        -2.289260
 H         5.346167        -0.260365        -1.019529
 H         3.031403        -1.734392         0.324073
 H         4.317481         0.208987         1.589664
 H         3.663886         1.824083         1.540170
