19
Iteration:  2491charge 0 multiplicity 1
 C         0.018155        -0.785408         0.525881
 C         1.440368        -0.182985         0.266630
 C         1.979080         0.800168        -0.909679
 C         3.381300         0.486834        -0.291255
 C         4.355495        -0.218413        -1.172103
 O         3.580215        -1.471479        -1.083576
 C         2.886975        -0.930192         0.104532
 C         3.120321         1.447942         0.804702
 O         1.962620         0.719220         1.369092
 H        -0.066957        -1.885770         0.327718
 H        -0.130612        -0.470103         1.650185
 H        -0.661376        -0.289697        -0.232632
 H         1.804150         0.415177        -1.954014
 H         1.826124         1.890712        -0.938113
 H         4.347320         0.063325        -2.248992
 H         5.356964        -0.517387        -0.894880
 H         3.080929        -1.584818         1.068965
 H         3.710579         1.586883         1.744737
 H         3.028334         2.583047         0.527264
