19
Iteration:  2684
 C         0.212791        -0.656854         0.525106
 C         1.572823        -0.178213         0.171342
 C         1.960338         0.754758        -1.041839
 C         3.300296         0.608143        -0.355332
 C         4.300714        -0.183494        -1.162360
 O         3.411759        -1.445855        -1.114364
 C         2.989468        -0.868264         0.138202
 C         3.101060         1.291563         1.013692
 O         1.910902         0.604919         1.396548
 H        -0.322999         0.047081         1.303127
 H        -0.381047        -0.759695        -0.366227
 H         0.286361        -1.681824         0.931464
 H         1.749285         0.206042        -1.916951
 H         1.559884         1.738426        -1.031698
 H         4.437918        -0.016946        -2.209011
 H         5.232836        -0.383845        -0.635057
 H         3.455817        -1.249801         0.977587
 H         3.861363         1.231695         1.748997
 H         2.862861         2.284057         0.776323
