19
Iteration:   846charge 0 multiplicity 1
 C         0.228511        -0.866153         0.620378
 C         1.470615        -0.226990         0.205706
 C         1.956770        -0.123530        -1.257973
 C         3.284238         0.396825        -0.558458
 C         4.609646        -0.416791        -0.657333
 O         3.868731        -1.477727         0.144320
 C         2.914373        -0.496387         0.675533
 C         2.871092         1.724258        -0.088043
 O         1.510651         1.301025         0.458902
 H         0.307973        -1.944435         0.483134
 H        -0.019084        -0.622522         1.695245
 H        -0.538724        -0.386931         0.040933
 H         2.204572        -0.994869        -1.843291
 H         1.358351         0.563969        -1.988295
 H         5.066365        -0.937036        -1.512950
 H         5.346368         0.133215         0.009337
 H         3.118899        -0.374218         1.739344
 H         3.412179         2.175447         0.765398
 H         2.803393         2.510687        -0.747534
