19
Iteration:   556charge 0 multiplicity 1
 C         0.327599        -0.876067         0.659872
 C         1.500669        -0.178118         0.182362
 C         2.032894        -0.328617        -1.253209
 C         3.268061         0.349661        -0.558526
 C         4.579664        -0.417727        -0.501893
 O         3.942129        -1.417195         0.436864
 C         2.931096        -0.452559         0.731070
 C         2.752501         1.738428        -0.376021
 O         1.378422         1.403977         0.212631
 H         0.380064        -0.937184         1.750603
 H        -0.698859        -0.475743         0.455450
 H         0.404252        -1.891694         0.271642
 H         2.300540        -1.352648        -1.343197
 H         1.517629         0.037186        -2.120893
 H         5.042566        -0.887748        -1.452425
 H         5.348721         0.050739         0.156692
 H         3.055665         0.118591         1.663370
 H         3.291555         2.390353         0.438526
 H         2.669940         2.338073        -1.243816
