19
Iteration:  3881charge 0 multiplicity 1
 C         0.117265        -0.661352         0.594126
 C         1.493657        -0.130761         0.327488
 C         2.003041         1.033107        -0.587007
 C         3.380750         0.474685        -0.187992
 C         4.236597         0.079472        -1.354683
 O         3.390309        -1.103222        -1.627752
 C         2.672594        -0.939607        -0.260265
 C         3.355757         0.838754         1.231503
 O         2.053498         0.281615         1.505862
 H        -0.052804        -1.421635        -0.046178
 H        -0.154263        -0.943261         1.593078
 H        -0.513188         0.121708         0.287141
 H         1.835421         0.901506        -1.832376
 H         1.792666         2.093529        -0.070087
 H         4.307427         0.905361        -2.087791
 H         5.230525        -0.130804        -0.987763
 H         2.869767        -1.918983         0.264563
 H         4.260160         0.468635         1.811880
 H         3.362605         1.906293         1.407600
