19
Iteration:  2325
 C         0.121507        -0.767084         0.585373
 C         1.475571        -0.143631         0.140125
 C         1.985385         0.709466        -1.009322
 C         3.370692         0.501865        -0.287141
 C         4.396837        -0.273913        -1.253065
 O         3.618169        -1.485921        -0.977453
 C         2.841788        -0.895428         0.147991
 C         3.153708         1.432950         0.878605
 O         1.810895         0.794972         1.315869
 H        -0.724369         0.041324         0.662769
 H        -0.223386        -1.586564        -0.029271
 H         0.222149        -1.092957         1.637848
 H         1.820970         0.440039        -1.995250
 H         1.728796         1.750480        -0.745190
 H         4.311695         0.033326        -2.284141
 H         5.468639        -0.500945        -1.024608
 H         2.965144        -1.419733         1.153775
 H         3.750859         1.304628         1.735660
 H         2.829100         2.488702         0.602074
