19
Iteration:  2092
 C        -0.013258        -0.877149         0.509445
 C         1.415380        -0.111348         0.330307
 C         1.855888         0.551023        -1.072584
 C         3.370492         0.473739        -0.364062
 C         4.496022        -0.277482        -1.125523
 O         3.698300        -1.479780        -0.879689
 C         2.812495        -0.872691         0.246435
 C         3.240406         1.504644         0.797656
 O         1.839437         0.993609         1.171848
 H        -0.671263        -0.576507        -0.276717
 H         0.326132        -1.972352         0.413096
 H        -0.597536        -0.776031         1.482603
 H         1.636579        -0.101003        -1.936727
 H         1.361738         1.557586        -1.018235
 H         4.645065        -0.004392        -2.197875
 H         5.437761        -0.346105        -0.461115
 H         3.328500        -1.384685         1.068901
 H         3.789394         1.335522         1.627790
 H         3.170891         2.543061         0.326895
