19
Iteration:  1237
 C         0.172228        -0.816434         0.554512
 C         1.433616        -0.190011         0.166955
 C         2.032450         0.090153        -1.218440
 C         3.333240         0.435081        -0.388161
 C         4.574180        -0.424470        -0.870477
 O         3.840784        -1.561369        -0.191029
 C         2.821483        -0.651443         0.519165
 C         2.869856         1.738374         0.185989
 O         1.645543         1.179681         0.838604
 H         0.175036        -1.892281         0.683345
 H        -0.101295        -0.395045         1.542743
 H        -0.701953        -0.498543        -0.108815
 H         2.291711        -0.748552        -2.017014
 H         1.590899         0.902341        -1.751637
 H         4.382107        -0.408939        -1.950479
 H         5.619103        -0.148913        -0.543398
 H         3.191022        -0.504940         1.591750
 H         3.406814         2.192647         0.967417
 H         2.679338         2.615101        -0.592592
