19
Iteration:  2903charge 0 multiplicity 1
 C         0.180989        -0.755372         0.397350
 C         1.533367        -0.176176         0.304124
 C         1.837082         0.808636        -0.883464
 C         3.342602         0.566291        -0.313564
 C         4.371411        -0.172698        -1.265524
 O         3.376747        -1.290897        -1.220444
 C         2.853313        -0.888117         0.030184
 C         3.300559         1.182621         1.075089
 O         1.948478         0.629014         1.484087
 H        -0.082690        -1.017091         1.467145
 H        -0.494957         0.084490         0.092698
 H         0.017355        -1.632233        -0.220974
 H         1.652077         0.244085        -1.749804
 H         1.397848         1.709929        -0.875133
 H         4.425347         0.233769        -2.264870
 H         5.358670        -0.456608        -0.907083
 H         3.389098        -1.377099         0.880146
 H         4.112640         0.878207         1.803803
 H         3.142661         2.318057         0.986977
