19
Iteration:  4792
 C         0.065826        -0.592848         0.491499
 C         1.520388        -0.194084         0.302760
 C         1.964584         0.917048        -0.584879
 C         3.349266         0.463337        -0.201273
 C         4.280465         0.061779        -1.339640
 O         3.304710        -1.051696        -1.705302
 C         2.774934        -0.931510        -0.188029
 C         3.344502         0.905390         1.321586
 O         2.129369         0.315725         1.564119
 H        -0.381468        -0.650818        -0.491189
 H        -0.211405        -1.543933         0.904569
 H        -0.405987         0.148709         1.183986
 H         1.855349         0.680145        -1.541920
 H         1.602318         1.914384        -0.452972
 H         4.317377         0.628294        -2.253956
 H         5.157593        -0.352992        -1.070437
 H         3.323634        -1.846745         0.369425
 H         4.084632         0.405566         2.046280
 H         3.270417         2.017147         1.489529
