19
Iteration:   150
 C         0.266871        -0.762947         0.707900
 C         1.561179        -0.259937         0.144095
 C         2.182317        -0.670599        -1.260826
 C         3.264351         0.272291        -0.657282
 C         4.592372        -0.424503        -0.268917
 O         3.994000        -1.155628         0.724816
 C         2.941496        -0.094670         0.794885
 C         2.558531         1.645980        -0.632385
 O         1.377118         1.213127         0.031113
 H         0.298883        -1.293353         1.699873
 H        -0.379962         0.110978         0.803196
 H        -0.265360        -1.435778        -0.001744
 H         2.425943        -1.705910        -1.510824
 H         1.670254        -0.192445        -2.146405
 H         5.066203        -1.136129        -1.039503
 H         5.373106         0.225383         0.108481
 H         3.101033         0.646725         1.633174
 H         3.207288         2.558684        -0.213906
 H         2.314294         2.031045        -1.776339
