19
Iteration:  3990charge 0 multiplicity 1
 C         0.199754        -0.622651         0.462286
 C         1.535164        -0.105502         0.224191
 C         1.926774         0.992513        -0.601400
 C         3.379731         0.552755        -0.213356
 C         4.213825         0.019483        -1.394531
 O         3.292137        -1.101398        -1.545275
 C         2.795854        -0.861719        -0.156299
 C         3.354944         0.779141         1.300763
 O         2.038421         0.266473         1.545313
 H        -0.415334        -0.626325        -0.422530
 H         0.168085        -1.625285         0.926908
 H        -0.260533         0.067358         1.162494
 H         1.663419         0.800420        -1.751508
 H         1.498359         2.001297        -0.402495
 H         4.253739         0.706066        -2.299640
 H         5.195597        -0.249942        -1.097155
 H         3.352422        -1.624353         0.537755
 H         4.117186         0.217304         1.866588
 H         3.418672         1.815539         1.570549
