19
Iteration:   343charge 0 multiplicity 1
 C         0.103278        -0.787089         0.767068
 C         1.477506        -0.325215         0.089377
 C         2.207181        -0.496713        -1.292235
 C         3.320960         0.412046        -0.600024
 C         4.615201        -0.457598        -0.420728
 O         4.060953        -1.264989         0.625266
 C         2.859385        -0.308637         0.786756
 C         2.562825         1.760194        -0.615287
 O         1.532580         1.252276         0.198336
 H         0.214789        -1.250648         1.840126
 H        -0.609928         0.033022         0.781293
 H        -0.283998        -1.656216         0.146241
 H         2.437226        -1.546075        -1.603270
 H         1.676282        -0.003058        -2.160605
 H         4.982806        -1.074928        -1.265735
 H         5.415143         0.182205         0.092545
 H         2.901476         0.226971         1.777133
 H         2.932766         2.771098        -0.097300
 H         2.245488         2.152521        -1.687547
