19
Iteration:  1656
 C         0.296036        -0.841186         0.528795
 C         1.534788        -0.117219         0.249625
 C         1.908514         0.277277        -1.238306
 C         3.355117         0.547270        -0.378954
 C         4.413351        -0.387282        -0.972088
 O         3.625319        -1.534143        -0.600675
 C         2.944902        -0.694497         0.409895
 C         3.028796         1.583502         0.564820
 O         1.633741         1.084733         1.028970
 H         0.437083        -1.914607         0.285455
 H         0.061143        -0.605300         1.553546
 H        -0.519780        -0.475385        -0.039489
 H         1.897693        -0.604459        -1.975501
 H         1.365164         1.156038        -1.636535
 H         4.632480        -0.374096        -2.056476
 H         5.336280        -0.489356        -0.297336
 H         3.392329        -0.854859         1.461601
 H         3.880927         1.543321         1.298330
 H         2.744076         2.582813         0.155471
