19
Iteration:  1750
 C         0.100528        -0.773721         0.521853
 C         1.541342        -0.181079         0.205688
 C         1.949935         0.299637        -1.155080
 C         3.322695         0.531119        -0.451238
 C         4.473736        -0.340110        -1.088576
 O         3.667597        -1.531488        -0.571423
 C         2.922767        -0.703331         0.362577
 C         2.986971         1.621816         0.648589
 O         1.776355         0.970816         1.083301
 H        -0.131704        -0.408472         1.571910
 H        -0.641961        -0.336813        -0.181978
 H        -0.079742        -1.860923         0.634385
 H         2.164176        -0.526556        -1.898945
 H         1.495971         1.136722        -1.570775
 H         4.523796        -0.186403        -2.173326
 H         5.390070        -0.347202        -0.572314
 H         3.237767        -0.974338         1.344730
 H         3.755330         1.546218         1.418367
 H         2.765770         2.657662         0.279912
