19
Iteration:  1687charge 0 multiplicity 1
 C         0.127264        -0.860797         0.600204
 C         1.442345        -0.187680         0.095130
 C         2.002325         0.451313        -1.223123
 C         3.343145         0.558440        -0.370473
 C         4.399513        -0.442052        -0.986668
 O         3.756226        -1.605437        -0.588819
 C         2.887148        -0.727961         0.395468
 C         2.940777         1.706034         0.528134
 O         1.766136         0.997874         1.080718
 H         0.455813        -1.753976         1.251447
 H        -0.150707        -0.179070         1.427828
 H        -0.723343        -1.059999        -0.020690
 H         2.020934        -0.229846        -2.161989
 H         1.567335         1.399006        -1.428681
 H         4.720052        -0.412677        -2.052593
 H         5.408706        -0.374133        -0.445606
 H         3.266398        -0.871039         1.435939
 H         3.923607         1.820806         1.206078
 H         2.598478         2.593149         0.018626
