19
Iteration:  3014
 C         0.155924        -0.752949         0.486069
 C         1.547540        -0.179517         0.219690
 C         1.918461         0.879494        -0.892760
 C         3.393203         0.561729        -0.223232
 C         4.252104        -0.152128        -1.260481
 O         3.357166        -1.319975        -1.287462
 C         2.842762        -0.902293         0.001195
 C         3.276394         1.216442         1.128440
 O         1.985379         0.564368         1.463473
 H        -0.609963        -0.178214         0.080062
 H         0.172542        -1.749138         0.007668
 H        -0.072791        -0.800219         1.502849
 H         1.882708         0.514828        -1.998881
 H         1.580344         1.859701        -0.791314
 H         4.346825         0.421294        -2.196842
 H         5.223536        -0.459569        -0.941378
 H         3.251227        -1.646744         0.674675
 H         4.031997         0.883526         1.858371
 H         3.229151         2.369480         1.041607
