19
Iteration:  1123charge 0 multiplicity 1
 C         0.118801        -0.770676         0.608091
 C         1.503368        -0.276220         0.223417
 C         2.038522        -0.047435        -1.218997
 C         3.342271         0.473263        -0.531145
 C         4.567923        -0.416181        -0.791502
 O         3.798769        -1.595047        -0.125965
 C         2.996637        -0.503832         0.483201
 C         2.831145         1.772811         0.252345
 O         1.547991         1.195485         0.673928
 H        -0.401122         0.026563         1.157551
 H        -0.413166        -0.960702        -0.337432
 H         0.067588        -1.649506         1.210112
 H         2.294660        -0.909891        -1.750515
 H         1.589699         0.701875        -1.957119
 H         4.841231        -0.685014        -1.864171
 H         5.388340        -0.051650        -0.174742
 H         3.376819        -0.581391         1.490383
 H         3.493976         2.295174         1.122911
 H         2.584334         2.609587        -0.398524
