19
Iteration:   704charge 0 multiplicity 1
 C         0.253665        -0.860347         0.687337
 C         1.526670        -0.269737         0.144344
 C         2.066871        -0.169574        -1.304756
 C         3.389595         0.448159        -0.443772
 C         4.612244        -0.513105        -0.617589
 O         3.860156        -1.490328         0.301278
 C         2.938743        -0.468249         0.701198
 C         2.640984         1.804219        -0.193704
 O         1.444281         1.305156         0.330235
 H         0.409817        -1.608605         1.477901
 H        -0.191035         0.027682         1.288995
 H        -0.496507        -1.158282        -0.048095
 H         2.408857        -1.127195        -1.744321
 H         1.665191         0.682903        -2.048409
 H         4.843896        -0.862099        -1.641748
 H         5.591067        -0.202728        -0.144534
 H         3.222425        -0.109138         1.720475
 H         3.212005         2.696881         0.267576
 H         2.469716         2.155070        -1.331771
