19
Iteration:  4156
 C         0.147485        -0.581267         0.588457
 C         1.511448        -0.156737         0.261947
 C         1.937773         0.991912        -0.648815
 C         3.378566         0.561984        -0.213104
 C         4.274863         0.046976        -1.286547
 O         3.280475        -1.107174        -1.587187
 C         2.810399        -0.885743        -0.250348
 C         3.367125         0.832196         1.284681
 O         2.041305         0.251187         1.479527
 H        -0.516881        -0.458235        -0.284892
 H         0.080400        -1.713073         0.661157
 H        -0.442673        -0.197847         1.483600
 H         1.806768         0.774224        -1.747497
 H         1.594032         1.985090        -0.583941
 H         4.516889         0.690374        -2.209886
 H         5.216700        -0.425252        -0.942766
 H         3.248373        -1.734973         0.449630
 H         4.095601         0.377457         2.049084
 H         3.274201         1.859678         1.560228
