19
Iteration:  1890charge 0 multiplicity 1
 C         0.224420        -0.682672         0.531353
 C         1.506030        -0.177887         0.152627
 C         1.826691         0.360011        -1.189282
 C         3.267300         0.533127        -0.456575
 C         4.387963        -0.358996        -1.027100
 O         3.695620        -1.540751        -0.710937
 C         2.945360        -0.753549         0.295700
 C         3.110954         1.552511         0.754029
 O         1.765230         0.959229         1.218609
 H         0.074946        -1.535933        -0.105103
 H         0.173613        -0.972594         1.563654
 H        -0.525089        -0.019942         0.164312
 H         1.928659        -0.514998        -1.982866
 H         1.219981         1.124487        -1.644228
 H         4.467369        -0.272972        -2.159270
 H         5.360704        -0.144825        -0.472397
 H         3.134951        -0.858967         1.418263
 H         3.818454         1.429754         1.482685
 H         2.906267         2.579798         0.451831
