19
Iteration:  2598
 C         0.143077        -0.772173         0.520238
 C         1.532953        -0.161445         0.220397
 C         2.018000         0.718392        -1.015412
 C         3.382614         0.567846        -0.318099
 C         4.369097        -0.316345        -1.241438
 O         3.412756        -1.412035        -1.120697
 C         2.896628        -0.787217         0.106352
 C         3.105906         1.388327         1.051926
 O         1.889583         0.691094         1.408983
 H         0.124750        -0.948362         1.575714
 H        -0.624629        -0.124098         0.329582
 H        -0.065220        -1.645554        -0.030545
 H         1.992210         0.085235        -1.980302
 H         1.525053         1.748591        -1.257877
 H         4.417904         0.087996        -2.270932
 H         5.416670        -0.700936        -0.950448
 H         3.408974        -1.207978         0.958527
 H         3.826690         1.308939         1.820598
 H         2.913949         2.458754         0.868495
