19
Iteration:  1920charge 0 multiplicity 1
 C         0.090601        -0.789182         0.608366
 C         1.464517        -0.217341         0.201894
 C         1.997309         0.413409        -1.075637
 C         3.292101         0.482387        -0.399846
 C         4.406224        -0.303148        -1.043984
 O         3.624501        -1.485312        -0.813702
 C         2.984421        -0.776129         0.336576
 C         3.125213         1.506144         0.690352
 O         1.745267         1.040010         1.079278
 H         0.228660        -1.849222         0.653465
 H        -0.355069        -0.422624         1.569953
 H        -0.668654        -0.607529        -0.210767
 H         2.003322        -0.302463        -1.948350
 H         1.517389         1.339348        -1.446898
 H         4.665203        -0.216029        -2.072135
 H         5.362765        -0.247701        -0.521111
 H         3.377255        -1.076547         1.340785
 H         3.792030         1.364931         1.664556
 H         2.990407         2.533089         0.468175
