19
Iteration:  3191
 C         0.167614        -0.746636         0.398282
 C         1.492403        -0.043749         0.243918
 C         1.857730         1.028965        -0.714844
 C         3.311686         0.482194        -0.283333
 C         4.270474        -0.130989        -1.305324
 O         3.425061        -1.354561        -1.351191
 C         2.801324        -0.914345         0.012605
 C         3.363632         1.132045         1.118417
 O         2.008251         0.493519         1.511582
 H         0.456449        -1.470576         1.129010
 H        -0.722043        -0.233865         0.626512
 H        -0.023320        -1.317449        -0.466291
 H         1.565526         0.799009        -1.910199
 H         1.811038         2.098426        -0.423243
 H         4.198876         0.344884        -2.339308
 H         5.328839        -0.209080        -0.965334
 H         3.004341        -1.649412         0.785827
 H         4.100155         0.698252         1.779934
 H         3.323067         2.199344         1.139172
