19
Iteration:  2124charge 0 multiplicity 1
 C         0.250547        -0.737352         0.522883
 C         1.599297        -0.181611         0.136272
 C         2.018337         0.566213        -1.130048
 C         3.302982         0.596244        -0.324419
 C         4.267940        -0.304302        -1.159359
 O         3.562503        -1.531698        -0.833875
 C         2.881666        -0.841900         0.270365
 C         3.085892         1.451334         0.892126
 O         1.757250         0.862185         1.191812
 H        -0.337228        -1.096799        -0.274106
 H         0.419978        -1.644121         1.158558
 H        -0.271555         0.045964         1.092552
 H         1.959774        -0.005786        -2.088481
 H         1.485545         1.572209        -1.191730
 H         4.371520        -0.038170        -2.246879
 H         5.311473        -0.259013        -0.725392
 H         3.333022        -1.159645         1.269716
 H         3.758253         1.310910         1.681396
 H         3.125013         2.578389         0.665554
