19
Iteration:  1244charge 0 multiplicity 1
 C         0.142838        -0.789830         0.565419
 C         1.452872        -0.125504         0.168221
 C         2.033762         0.117635        -1.225609
 C         3.296788         0.438785        -0.437665
 C         4.537021        -0.386765        -0.822584
 O         3.866998        -1.586393        -0.220422
 C         2.895550        -0.653140         0.548678
 C         2.830868         1.710614         0.221313
 O         1.685944         1.156442         0.791030
 H         0.239902        -1.849099         0.832472
 H        -0.269910        -0.202685         1.392485
 H        -0.659904        -0.839453        -0.135117
 H         2.126215        -0.809583        -1.771338
 H         1.570325         0.941190        -1.799140
 H         4.539495        -0.563679        -1.932263
 H         5.540155        -0.191887        -0.563236
 H         2.953767        -0.612647         1.619771
 H         3.507534         2.059362         1.072708
 H         2.492076         2.391856        -0.486330
