19
Iteration:  1730
 C         0.124073        -0.724689         0.502675
 C         1.496051        -0.223209         0.246323
 C         1.908260         0.204107        -1.195850
 C         3.285587         0.523199        -0.468331
 C         4.375326        -0.316099        -0.992266
 O         3.725973        -1.539536        -0.672753
 C         3.036373        -0.719592         0.414657
 C         3.076532         1.586383         0.632959
 O         1.699910         1.111985         1.106600
 H        -0.006248        -1.081100         1.608559
 H        -0.560070         0.121855         0.234269
 H        -0.031659        -1.596026        -0.145120
 H         2.020723        -0.734921        -1.837269
 H         1.329642         0.945440        -1.673724
 H         4.618509        -0.245533        -2.068520
 H         5.307991        -0.196305        -0.436524
 H         3.400933        -0.928744         1.413769
 H         3.639638         1.228415         1.539867
 H         2.996435         2.554069         0.307093
