19
Iteration:  2274charge 0 multiplicity 1
 C         0.103258        -0.874475         0.400033
 C         1.510714        -0.152387         0.319903
 C         1.828174         0.617306        -0.958199
 C         3.336480         0.523169        -0.334768
 C         4.422224        -0.289272        -1.122771
 O         3.510951        -1.437596        -1.053753
 C         2.908331        -0.833756         0.198780
 C         3.253976         1.404701         0.821490
 O         1.875216         0.969408         1.341359
 H        -0.544895        -0.523740         1.256060
 H        -0.427336        -0.669667        -0.583899
 H         0.213573        -1.967578         0.542724
 H         1.701536        -0.088249        -1.792711
 H         1.235703         1.532820        -1.154605
 H         4.740449        -0.103067        -2.200070
 H         5.276664        -0.490001        -0.421198
 H         3.357908        -1.206737         1.072695
 H         3.912317         0.990776         1.694372
 H         3.154072         2.460880         0.654241
