19
Iteration:  2117charge 0 multiplicity 1
 C         0.240924        -0.797697         0.501286
 C         1.484492        -0.213542         0.146183
 C         2.002502         0.623443        -1.086810
 C         3.308952         0.523994        -0.342828
 C         4.296884        -0.273173        -1.136760
 O         3.621543        -1.549244        -0.846122
 C         2.868768        -0.868543         0.257272
 C         3.109435         1.461122         0.847914
 O         1.776566         0.974055         1.220835
 H        -0.548863        -0.936009        -0.320925
 H         0.435740        -1.730528         1.100598
 H        -0.202432        -0.036574         1.212486
 H         2.147627        -0.027612        -1.992917
 H         1.508912         1.518341        -1.172623
 H         4.212140        -0.007173        -2.173375
 H         5.346024        -0.324889        -0.742738
 H         3.330688        -1.194982         1.128333
 H         3.796961         1.154103         1.688014
 H         3.013720         2.500458         0.605007
