19
Iteration:  3178
 C         0.115988        -0.804027         0.391032
 C         1.468359        -0.087699         0.313256
 C         1.971663         0.974385        -0.717833
 C         3.394342         0.548065        -0.288352
 C         4.267364        -0.096305        -1.364937
 O         3.387618        -1.341639        -1.306099
 C         2.800731        -0.894911        -0.041277
 C         3.344174         1.092517         1.126253
 O         1.991038         0.544018         1.506094
 H         0.118453        -1.739682         0.891057
 H        -0.527901        -0.155362         1.013516
 H        -0.225795        -0.944794        -0.565689
 H         1.654000         0.621901        -1.837188
 H         1.520054         2.036479        -0.575048
 H         4.397427         0.331037        -2.425509
 H         5.296050        -0.431826        -1.001046
 H         3.245737        -1.411104         0.822466
 H         4.049867         0.754288         1.823500
 H         3.217714         2.091085         1.195983
