19
Iteration:   599
 C         0.248865        -0.806246         0.707976
 C         1.534329        -0.246690         0.109950
 C         2.195505        -0.381985        -1.228327
 C         3.322688         0.464277        -0.546107
 C         4.524754        -0.502002        -0.540020
 O         3.888491        -1.385514         0.349986
 C         2.949558        -0.361244         0.713784
 C         2.662388         1.798203        -0.315085
 O         1.428620         1.274040         0.323918
 H        -0.417349         0.047720         0.735816
 H        -0.161349        -1.437494        -0.130371
 H         0.303154        -1.423586         1.602918
 H         2.519093        -1.337653        -1.499590
 H         1.640271        -0.120939        -2.079196
 H         4.786773        -0.998081        -1.504203
 H         5.346780         0.062990        -0.065283
 H         3.111569        -0.207050         1.802620
 H         3.110718         2.507532         0.345443
 H         2.583597         2.315253        -1.240271
