19
Iteration:   569charge 0 multiplicity 1
 C         0.288472        -0.913382         0.688447
 C         1.477898        -0.098839         0.181805
 C         2.056569        -0.364872        -1.174396
 C         3.298666         0.374827        -0.598019
 C         4.572831        -0.464959        -0.469154
 O         3.932756        -1.441781         0.341855
 C         2.920947        -0.300491         0.787052
 C         2.740845         1.751896        -0.328877
 O         1.418456         1.316250         0.160547
 H        -0.058419        -0.684355         1.725608
 H        -0.466166        -0.774356        -0.023419
 H         0.625831        -1.954801         0.603774
 H         2.128204        -1.381088        -1.633030
 H         1.529217         0.219382        -1.942611
 H         5.020248        -0.937194        -1.386878
 H         5.327986         0.193177         0.038718
 H         3.228651        -0.086590         1.795425
 H         3.327370         2.354483         0.490785
 H         2.594513         2.446443        -1.178925
