19
Iteration:  4626
 C         0.070412        -0.611808         0.506179
 C         1.436634        -0.183677         0.278220
 C         1.861687         1.063625        -0.562718
 C         3.366945         0.567494        -0.207451
 C         4.266932         0.068647        -1.433194
 O         3.397342        -1.126338        -1.512222
 C         2.796867        -0.891992        -0.237824
 C         3.485450         0.730942         1.229406
 O         2.063166         0.299111         1.563021
 H        -0.345447        -0.952969        -0.398479
 H        -0.134614        -1.353383         1.280912
 H        -0.524516         0.325075         0.712508
 H         1.705531         0.827341        -1.732557
 H         1.367763         2.035697        -0.510603
 H         4.134869         0.741192        -2.347565
 H         5.365167        -0.269863        -1.227288
 H         3.080853        -1.750281         0.557112
 H         4.141719         0.078965         1.867856
 H         3.580835         1.806675         1.667651
