19
Iteration:   678charge 0 multiplicity 1
 C         0.239206        -0.793606         0.646579
 C         1.491959        -0.174411         0.182764
 C         2.113513        -0.339424        -1.279734
 C         3.305824         0.418513        -0.574864
 C         4.553961        -0.459752        -0.548908
 O         3.915960        -1.387288         0.238213
 C         2.885524        -0.427942         0.739243
 C         2.748873         1.752716        -0.220435
 O         1.445873         1.251380         0.386999
 H         0.200285        -1.860485         0.366909
 H         0.093699        -0.741346         1.685659
 H        -0.586307        -0.213644         0.127925
 H         2.406828        -1.417118        -1.263680
 H         1.663745         0.057013        -2.163264
 H         4.864581        -0.819339        -1.552769
 H         5.479819        -0.024949        -0.078908
 H         3.253285         0.014484         1.642793
 H         3.373658         2.290907         0.516424
 H         2.546177         2.370654        -1.046434
