19
Iteration:   490
 C         0.201670        -0.737959         0.650854
 C         1.486942        -0.190066         0.214552
 C         2.072041        -0.465854        -1.160111
 C         3.240949         0.325095        -0.518545
 C         4.628020        -0.410172        -0.495706
 O         4.084277        -1.367175         0.379505
 C         2.928146        -0.410164         0.810697
 C         2.667481         1.763024        -0.390731
 O         1.374138         1.299759         0.113391
 H         0.255325        -1.726932         0.255779
 H        -0.013182        -0.825019         1.756464
 H        -0.630743        -0.226648         0.193774
 H         2.374734        -1.479702        -1.194959
 H         1.574348        -0.064924        -2.024497
 H         5.040864        -0.776139        -1.503504
 H         5.433124         0.162129         0.015008
 H         3.217154        -0.101853         1.824164
 H         3.281597         2.479624         0.346673
 H         2.583265         2.346117        -1.316349
