19
Iteration:  4249
 C         0.108194        -0.733392         0.322480
 C         1.607977        -0.122753         0.321789
 C         1.962966         1.032279        -0.609383
 C         3.464368         0.504880        -0.161329
 C         4.194257        -0.062727        -1.384103
 O         3.153684        -1.010075        -1.622206
 C         2.772582        -0.914525        -0.157397
 C         3.397708         0.935749         1.339251
 O         2.107359         0.260081         1.642951
 H         0.014442        -1.496338        -0.473355
 H        -0.165623        -1.199013         1.209963
 H        -0.582797        -0.024831         0.064500
 H         1.725995         0.959977        -1.773212
 H         1.748386         2.148141        -0.362875
 H         4.240524         0.747098        -2.067226
 H         5.177649        -0.493090        -1.339478
 H         3.202269        -1.927436         0.575467
 H         4.160016         0.717155         2.035005
 H         3.358708         2.066764         1.301798
