19
Iteration:  1534
 C         0.227207        -0.822947         0.559920
 C         1.473996        -0.164617         0.194315
 C         1.953309         0.223112        -1.153203
 C         3.322177         0.461952        -0.366918
 C         4.457453        -0.389445        -0.969703
 O         3.744551        -1.601171        -0.558513
 C         2.917177        -0.791209         0.508199
 C         2.989816         1.693252         0.481941
 O         1.635077         1.209981         0.924513
 H        -0.404305        -0.083019         1.034438
 H        -0.310316        -1.160301        -0.328299
 H         0.318697        -1.684947         1.179629
 H         2.081915        -0.502456        -2.000995
 H         1.436675         1.095086        -1.598613
 H         4.632509        -0.120477        -2.013573
 H         5.358962        -0.220513        -0.334828
 H         3.269607        -1.029165         1.551849
 H         3.687010         1.973853         1.242353
 H         2.915441         2.651866        -0.075600
