19
Iteration:  1666charge 0 multiplicity 1
 C         0.299124        -0.813590         0.591227
 C         1.561392        -0.128987         0.180953
 C         1.938315         0.351803        -1.257683
 C         3.356077         0.554508        -0.456990
 C         4.446045        -0.394687        -0.982849
 O         3.569704        -1.546767        -0.508943
 C         2.933357        -0.691870         0.317185
 C         2.935397         1.620224         0.587196
 O         1.693888         0.987484         1.060003
 H         0.404878        -1.930245         0.747586
 H        -0.070439        -0.550347         1.581193
 H        -0.416356        -0.596590        -0.163927
 H         2.050309        -0.557081        -1.975162
 H         1.499834         1.221375        -1.737496
 H         4.722353        -0.385561        -2.061379
 H         5.461265        -0.353657        -0.432927
 H         3.155578        -0.979533         1.405398
 H         3.634688         1.685682         1.567527
 H         2.853906         2.610548         0.071041
