19
Iteration:   734
 C         0.260871        -0.888838         0.657654
 C         1.484454        -0.161257         0.159127
 C         2.092135        -0.267972        -1.241177
 C         3.310573         0.432555        -0.626825
 C         4.548884        -0.416963        -0.629729
 O         3.804163        -1.481616         0.250892
 C         2.911938        -0.429770         0.718876
 C         2.818034         1.759801        -0.117666
 O         1.486161         1.295118         0.356782
 H         0.208620        -0.724874         1.761498
 H        -0.671298        -0.384402         0.345968
 H         0.342102        -1.984362         0.440625
 H         2.256301        -1.346447        -1.577824
 H         1.710254         0.195403        -2.219833
 H         4.987984        -0.800636        -1.567219
 H         5.262005         0.080277         0.102976
 H         3.255828        -0.091241         1.705081
 H         3.477642         2.365286         0.608547
 H         2.552473         2.536962        -0.796208
