19
Iteration:  3770charge 0 multiplicity 1
 C         0.202092        -0.719352         0.490483
 C         1.571791        -0.166507         0.244367
 C         1.981249         1.044780        -0.687926
 C         3.390625         0.542472        -0.201859
 C         4.221599         0.004999        -1.342583
 O         3.165063        -1.017924        -1.589226
 C         2.755557        -0.852985        -0.175369
 C         3.383177         0.734064         1.287208
 O         2.054343         0.329986         1.624272
 H         0.006178        -1.441163        -0.194607
 H         0.081977        -1.050529         1.431190
 H        -0.437215        -0.020247         0.103691
 H         1.890261         0.948393        -1.940586
 H         1.535078         2.016327        -0.323506
 H         4.329122         0.719304        -2.222331
 H         5.215418        -0.364559        -1.075373
 H         3.251117        -1.686417         0.370575
 H         4.201112         0.192736         1.914001
 H         3.490791         1.819652         1.559603
