19
Iteration:  1461charge 0 multiplicity 1
 C         0.046482        -0.883330         0.539121
 C         1.448128        -0.170198         0.254949
 C         1.951328         0.248996        -1.209253
 C         3.339001         0.405531        -0.464585
 C         4.499166        -0.363959        -0.882044
 O         3.833707        -1.567235        -0.486534
 C         2.894932        -0.670183         0.503632
 C         3.092711         1.655973         0.377380
 O         1.627497         1.199593         0.959457
 H         0.160188        -1.782629         1.258459
 H        -0.771214        -0.210112         0.956586
 H        -0.308134        -1.370800        -0.367308
 H         1.937165        -0.620531        -2.005665
 H         1.497639         1.078707        -1.718541
 H         4.713198        -0.473566        -1.942226
 H         5.437191        -0.062338        -0.336266
 H         3.124307        -0.761990         1.588070
 H         3.757571         1.922917         1.185875
 H         2.970227         2.674781        -0.047005
