19
Iteration:  1905charge 0 multiplicity 1
 C         0.136856        -0.756655         0.534386
 C         1.532250        -0.120715         0.282207
 C         1.864022         0.297614        -1.189717
 C         3.357194         0.600591        -0.455857
 C         4.485283        -0.242882        -1.079217
 O         3.588393        -1.531917        -0.710211
 C         2.919760        -0.740543         0.300739
 C         3.058088         1.449944         0.740501
 O         1.770735         0.973999         1.123307
 H         0.075371        -1.897214         0.364619
 H        -0.114171        -0.549039         1.601243
 H        -0.635694        -0.168045        -0.032753
 H         1.958635        -0.558582        -1.758059
 H         1.329245         1.182045        -1.606340
 H         4.725623        -0.150096        -2.163508
 H         5.383864        -0.425094        -0.462156
 H         3.428840        -0.991384         1.203998
 H         3.908770         1.186306         1.522128
 H         3.104344         2.633776         0.687517
