19
Iteration:  2017
 C         0.141446        -0.806890         0.548177
 C         1.465021        -0.114816         0.267028
 C         1.925198         0.516150        -1.096855
 C         3.284412         0.454690        -0.339921
 C         4.412967        -0.241878        -1.133762
 O         3.722281        -1.590971        -0.827894
 C         2.905465        -0.905317         0.316616
 C         3.114993         1.488075         0.730859
 O         1.719664         1.051245         1.184085
 H        -0.385298        -0.294999         1.359264
 H        -0.466523        -0.759593        -0.448041
 H         0.157453        -1.954801         0.695128
 H         1.888302         0.026640        -2.088492
 H         1.634277         1.540226        -1.203007
 H         4.406603        -0.041805        -2.188689
 H         5.489912        -0.146065        -0.843319
 H         3.261970        -1.264991         1.253093
 H         4.010788         1.485948         1.495522
 H         3.091447         2.543243         0.332642
