19
Iteration:  3207charge 0 multiplicity 1
 C         0.206047        -0.764712         0.465591
 C         1.490810        -0.135775         0.231173
 C         1.934089         1.009353        -0.804578
 C         3.355214         0.558102        -0.271348
 C         4.232286        -0.092781        -1.289756
 O         3.404883        -1.306890        -1.302136
 C         2.736142        -0.907430        -0.117772
 C         3.315863         1.039845         1.108210
 O         2.047815         0.510789         1.543318
 H         0.035758        -1.124055         1.539129
 H        -0.585083         0.042437         0.225456
 H         0.079284        -1.576888        -0.389296
 H         1.778788         0.804041        -1.759120
 H         1.439707         1.919148        -0.503292
 H         4.263904         0.353296        -2.261202
 H         5.148819        -0.467533        -0.870937
 H         3.081962        -1.504254         0.757682
 H         4.174546         0.716180         1.819202
 H         3.250933         2.268489         1.281989
