19
Iteration:  4688charge 0 multiplicity 1
 C         0.119749        -0.733692         0.414069
 C         1.561098        -0.113769         0.198577
 C         1.955586         1.002663        -0.656772
 C         3.417865         0.485013        -0.228037
 C         4.231236        -0.036454        -1.380327
 O         3.117417        -0.980745        -1.631405
 C         2.827779        -0.971218        -0.188193
 C         3.406271         0.923789         1.416553
 O         2.100466         0.348531         1.670762
 H        -0.105317        -1.436851        -0.484333
 H         0.217983        -1.295905         1.457236
 H        -0.705269         0.079376         0.293191
 H         1.967544         0.689062        -1.693440
 H         1.647900         1.962187        -0.275761
 H         4.499347         0.611480        -2.219031
 H         5.080032        -0.585682        -1.080331
 H         3.275468        -1.857255         0.286395
 H         4.147677         0.472105         2.036537
 H         3.401863         1.981527         1.691959
