19
Iteration:  4418charge 0 multiplicity 1
 C         0.128107        -0.731926         0.469206
 C         1.485118        -0.093084         0.267191
 C         1.957880         1.136467        -0.537919
 C         3.370036         0.477185        -0.228892
 C         4.222586         0.032117        -1.369744
 O         3.321137        -1.165477        -1.640923
 C         2.805912        -0.895227        -0.208339
 C         3.441816         0.798146         1.249370
 O         2.015758         0.362221         1.585436
 H        -0.304831        -1.172651        -0.369214
 H         0.462635        -1.517683         1.189309
 H        -0.521697        -0.036856         1.042773
 H         1.637701         1.174816        -1.722528
 H         1.810767         2.174822        -0.183052
 H         4.375273         0.695878        -2.238073
 H         5.144824        -0.380178        -1.021632
 H         2.898437        -1.641501         0.573914
 H         3.885196         0.174132         2.039072
 H         3.438265         1.870153         1.432759
