19
Iteration:  3051charge 0 multiplicity 1
 C         0.092265        -0.764150         0.416044
 C         1.530881        -0.162671         0.341585
 C         1.954266         0.833713        -0.835740
 C         3.376540         0.528807        -0.253154
 C         4.263825        -0.162638        -1.330644
 O         3.405247        -1.270933        -1.331020
 C         2.856471        -0.927542        -0.002476
 C         3.338704         1.194064         1.132133
 O         1.946989         0.633480         1.493135
 H        -0.453649        -0.540590        -0.608073
 H         0.157889        -1.888726         0.603649
 H        -0.489649        -0.472356         1.422965
 H         1.821147         0.453840        -1.750372
 H         1.582424         1.802031        -0.824733
 H         4.124945         0.465155        -2.219975
 H         5.283303        -0.578166        -1.292713
 H         3.252925        -1.535336         0.838667
 H         3.944189         0.844718         2.001628
 H         3.341691         2.352228         1.181176
