19
Iteration:  4744charge 0 multiplicity 1
 C         0.137166        -0.669629         0.457734
 C         1.491310        -0.113558         0.208669
 C         1.958342         1.053367        -0.631003
 C         3.371593         0.611155        -0.220373
 C         4.168033         0.011590        -1.397909
 O         3.377776        -1.167938        -1.528973
 C         2.701193        -0.842592        -0.250545
 C         3.439533         0.829148         1.291727
 O         2.095265         0.230837         1.647861
 H        -0.537321        -0.772300        -0.472955
 H        -0.150192        -1.748335         0.976805
 H        -0.387766         0.055610         1.318951
 H         1.798447         0.930248        -1.798239
 H         1.682634         2.074603        -0.472166
 H         4.131944         0.800992        -2.199551
 H         5.205853        -0.249603        -1.037267
 H         2.970855        -1.622216         0.514297
 H         4.234939         0.254405         1.702029
 H         3.435392         1.885564         1.619058
