19
Iteration:  2101
 C         0.036764        -0.894141         0.543525
 C         1.449855        -0.137256         0.194925
 C         1.873190         0.580281        -1.046078
 C         3.358064         0.469728        -0.283982
 C         4.456796        -0.266234        -1.159855
 O         3.686698        -1.516638        -0.864132
 C         2.862477        -0.875650         0.214401
 C         3.179531         1.443276         0.806404
 O         1.812240         1.062513         1.209196
 H        -0.565745        -0.869297        -0.322532
 H         0.206805        -1.967798         0.612718
 H        -0.522273        -0.524463         1.389360
 H         1.709323        -0.000397        -1.940722
 H         1.565806         1.728545        -1.161628
 H         4.546166        -0.018620        -2.268957
 H         5.488485        -0.253711        -0.743782
 H         2.991994        -1.383603         1.266146
 H         3.871232         1.386322         1.602225
 H         3.283612         2.512298         0.379638
