19
Iteration:  4856
 C         0.220875        -0.772401         0.367439
 C         1.520003        -0.110853         0.266708
 C         1.918441         1.137816        -0.560299
 C         3.352836         0.560569        -0.200742
 C         4.225691        -0.056428        -1.409232
 O         3.230723        -1.132922        -1.587292
 C         2.734671        -0.883149        -0.209625
 C         3.494005         0.822897         1.308616
 O         2.010498         0.359449         1.625457
 H         0.189306        -1.568725        -0.420648
 H         0.223523        -1.229017         1.421101
 H        -0.612976         0.078002         0.244680
 H         1.816988         1.048734        -1.575529
 H         1.670420         2.077922        -0.120712
 H         4.227080         0.649241        -2.246011
 H         5.294877        -0.294713        -1.078828
 H         3.066778        -1.618455         0.506360
 H         4.161334         0.160161         1.850940
 H         3.651745         1.865653         1.604942
