19
Iteration:   444charge 0 multiplicity 1
 C         0.295628        -0.797379         0.645217
 C         1.571281        -0.212753         0.129764
 C         2.111636        -0.438324        -1.266328
 C         3.324779         0.386366        -0.713030
 C         4.570983        -0.491053        -0.409400
 O         3.918852        -1.299997         0.552217
 C         2.959390        -0.327877         0.724990
 C         2.620998         1.722815        -0.445575
 O         1.409009         1.262361         0.272705
 H        -0.473655        -0.821505        -0.167150
 H         0.503151        -1.828379         1.136726
 H        -0.004399        -0.144248         1.520877
 H         2.380958        -1.517675        -1.358982
 H         1.446548        -0.008290        -2.039266
 H         4.922976        -1.139924        -1.304622
 H         5.429398         0.143640        -0.032989
 H         2.894358         0.103197         1.791263
 H         3.047768         2.622726         0.250706
 H         2.307599         2.287025        -1.407300
