19
Iteration:  3625
 C         0.130994        -0.810475         0.487724
 C         1.493367        -0.102672         0.236559
 C         2.026771         1.114443        -0.728746
 C         3.390967         0.573590        -0.223927
 C         4.241763        -0.042939        -1.390412
 O         3.251026        -1.096691        -1.503236
 C         2.785250        -0.827752        -0.119899
 C         3.413263         0.855674         1.260376
 O         1.998532         0.294757         1.562572
 H        -0.402056        -0.139421         1.156426
 H        -0.418676        -0.998873        -0.354565
 H         0.353761        -1.712707         0.966497
 H         1.810283         0.907966        -1.879112
 H         1.749915         2.151466        -0.356132
 H         4.293020         0.617375        -2.294055
 H         5.226233        -0.442687        -1.058882
 H         3.139021        -1.559518         0.650349
 H         4.188056         0.118485         1.787446
 H         3.428263         1.946619         1.723096
