19
Iteration:  2625
 C         0.163656        -0.727365         0.430263
 C         1.555290        -0.175610         0.296456
 C         1.878058         0.651995        -0.890071
 C         3.278412         0.507103        -0.353261
 C         4.304066        -0.135409        -1.187974
 O         3.516614        -1.389562        -1.121740
 C         2.876580        -0.914999         0.171137
 C         3.290832         1.244657         0.996392
 O         1.868988         0.826642         1.280084
 H        -0.250097        -0.519988         1.473320
 H        -0.595995        -0.176357        -0.281721
 H         0.072975        -1.847247         0.226049
 H         1.718410         0.043350        -1.771431
 H         1.391552         1.591625        -1.012255
 H         4.375486         0.172153        -2.247360
 H         5.320942        -0.240631        -0.834898
 H         3.395985        -1.524943         1.051675
 H         4.050915         0.884118         1.817468
 H         3.342555         2.400656         1.048505
