19
Iteration:  4394charge 0 multiplicity 1
 C         0.161794        -0.770823         0.446586
 C         1.498747        -0.122208         0.242096
 C         1.997243         1.091597        -0.635406
 C         3.416162         0.558324        -0.176358
 C         4.246314         0.039094        -1.373259
 O         3.228403        -1.113870        -1.499418
 C         2.735758        -0.873171        -0.178821
 C         3.430174         0.811139         1.274545
 O         2.074038         0.334812         1.562966
 H        -0.346249        -0.678458        -0.473586
 H         0.319617        -1.838713         0.644414
 H        -0.351408        -0.329337         1.216249
 H         1.742039         1.035024        -1.895011
 H         1.702848         2.123318        -0.398355
 H         4.044083         0.668178        -2.272638
 H         5.212996        -0.426679        -1.449203
 H         2.678216        -1.695382         0.517017
 H         4.037618         0.118752         1.806860
 H         3.443147         1.857704         1.652500
