19
Iteration:  1217charge 0 multiplicity 1
 C         0.198824        -0.826810         0.544251
 C         1.552853        -0.213998         0.166624
 C         2.027754         0.098223        -1.241097
 C         3.303009         0.517930        -0.472445
 C         4.442272        -0.459916        -0.840172
 O         3.778159        -1.571426        -0.201334
 C         3.033468        -0.639642         0.621770
 C         2.880565         1.768059         0.247218
 O         1.589759         1.208057         0.752524
 H        -0.089105        -1.718674        -0.059377
 H         0.097413        -1.090415         1.620161
 H        -0.733884        -0.143506         0.407700
 H         2.143416        -0.860672        -1.840121
 H         1.480104         0.847465        -1.810791
 H         4.589946        -0.736918        -1.906285
 H         5.459972        -0.208150        -0.257666
 H         3.018792        -0.736909         1.748749
 H         3.527220         2.109875         1.009737
 H         2.515063         2.614066        -0.473688
