19
Iteration:  1072charge 0 multiplicity 1
 C         0.164928        -0.819711         0.559868
 C         1.476392        -0.174184         0.127918
 C         1.985490         0.076353        -1.276989
 C         3.300524         0.408707        -0.498430
 C         4.567106        -0.476221        -0.779237
 O         3.882412        -1.583908         0.001701
 C         3.021630        -0.604904         0.574429
 C         2.813233         1.790079         0.069201
 O         1.552892         1.215782         0.745728
 H         0.227674        -1.300761         1.571957
 H        -0.691014        -0.082993         0.715183
 H        -0.186756        -1.613310        -0.102455
 H         2.083459        -0.849613        -1.807310
 H         1.327341         0.799219        -1.858514
 H         4.628803        -0.532845        -1.882383
 H         5.453373        -0.157577        -0.162668
 H         3.266272        -0.428992         1.690364
 H         3.480047         2.186728         0.755359
 H         2.654242         2.652903        -0.624338
