19
Iteration:  2001
 C         0.195780        -0.768280         0.437323
 C         1.540437        -0.161010         0.268990
 C         1.796763         0.448510        -1.035086
 C         3.306525         0.509527        -0.406833
 C         4.323560        -0.284430        -1.059003
 O         3.695065        -1.518076        -0.815868
 C         2.891658        -0.816704         0.313993
 C         3.162967         1.445584         0.743269
 O         1.818177         1.042077         1.113867
 H        -0.235922        -0.618835         1.449772
 H        -0.504281        -0.481375        -0.287889
 H         0.367374        -1.804268         0.373029
 H         1.782692        -0.400114        -1.731121
 H         1.177251         1.379980        -1.239819
 H         4.526099        -0.087707        -2.165034
 H         5.197036        -0.256237        -0.382418
 H         3.240880        -1.123763         1.375465
 H         3.658165         1.186374         1.595796
 H         3.126994         2.528564         0.651437
