19
Iteration:  4266charge 0 multiplicity 1
 C         0.159865        -0.722531         0.345567
 C         1.461252        -0.171563         0.302439
 C         2.016143         1.019181        -0.551948
 C         3.365300         0.422747        -0.168090
 C         4.238719         0.067471        -1.353756
 O         3.194217        -1.022544        -1.591723
 C         2.740524        -0.949455        -0.195572
 C         3.438328         0.897420         1.212941
 O         2.099663         0.353658         1.633078
 H         0.200186        -1.509219        -0.409841
 H         0.098191        -1.139514         1.432423
 H        -0.645527         0.084637         0.009803
 H         1.788115         0.868824        -1.510874
 H         1.741338         2.008573        -0.119485
 H         4.404831         0.666141        -2.302930
 H         5.198682        -0.416341        -0.968916
 H         3.004611        -1.754256         0.244229
 H         4.199028         0.374918         1.910452
 H         3.416538         1.935730         1.508650
