19
Iteration:  1408
 C         0.119565        -0.732459         0.587139
 C         1.501975        -0.250638         0.154733
 C         2.044433         0.250334        -1.230866
 C         3.324632         0.448810        -0.458306
 C         4.476183        -0.373191        -0.902806
 O         3.771525        -1.571944        -0.354859
 C         2.998552        -0.725518         0.486550
 C         2.836940         1.708031         0.389693
 O         1.650164         1.106070         0.892546
 H        -0.301818        -1.645029         0.022325
 H         0.405134        -1.178491         1.588652
 H        -0.687539         0.020573         0.529813
 H         2.182244        -0.581885        -2.019969
 H         1.645256         1.118573        -1.661403
 H         4.699283        -0.480622        -2.008737
 H         5.489712        -0.366019        -0.393760
 H         3.192593        -0.643570         1.548905
 H         3.596095         1.942631         1.242070
 H         2.560586         2.545667        -0.194998
