19
Iteration:  3563
 C        -0.008696        -0.611843         0.503736
 C         1.520509        -0.170261         0.291193
 C         1.933140         0.912035        -0.619616
 C         3.390904         0.435697        -0.181379
 C         4.281886         0.090260        -1.409759
 O         3.372909        -1.135575        -1.555652
 C         2.830847        -0.948270        -0.184063
 C         3.360854         0.983261         1.282471
 O         2.077029         0.346104         1.541583
 H        -0.178870        -1.102237         1.457872
 H        -0.711746         0.343401         0.132720
 H        -0.339419        -1.516539        -0.115693
 H         1.767347         0.694990        -1.686130
 H         1.488656         1.816040        -0.451625
 H         4.341021         0.724561        -2.337682
 H         5.286870        -0.236303        -1.168685
 H         3.081269        -1.757585         0.510365
 H         4.095227         0.553056         1.866790
 H         3.417415         1.993580         1.380916
