19
Iteration:   644
 C         0.062618        -0.806139         0.632575
 C         1.505325        -0.228110         0.223083
 C         1.993983        -0.318032        -1.243694
 C         3.264764         0.373758        -0.669397
 C         4.577092        -0.388240        -0.512972
 O         4.076425        -1.395363         0.332162
 C         2.931926        -0.448749         0.728379
 C         2.805961         1.746216        -0.261182
 O         1.480929         1.257712         0.316158
 H        -0.530349        -0.950237        -0.292297
 H         0.137297        -1.674533         1.226896
 H        -0.401858        -0.038514         1.274223
 H         2.251893        -1.311195        -1.589413
 H         1.540607         0.135626        -2.052861
 H         5.049248        -0.862940        -1.403183
 H         5.308877         0.215437         0.067419
 H         3.178651         0.049559         1.671376
 H         3.498908         2.222499         0.494660
 H         2.508672         2.438985        -0.958748
