19
Iteration:  3296charge 0 multiplicity 1
 C         0.156737        -0.708708         0.468972
 C         1.524721        -0.086141         0.266996
 C         1.912496         0.944398        -0.769297
 C         3.357679         0.626337        -0.336015
 C         4.295751        -0.091496        -1.388712
 O         3.385378        -1.313747        -1.326019
 C         2.822204        -0.818241        -0.052283
 C         3.297803         1.030371         1.147767
 O         2.010734         0.388309         1.529589
 H        -0.411955        -0.323913         1.374933
 H        -0.736136        -0.385090        -0.301325
 H         0.206735        -1.850420         0.567107
 H         1.682899         0.599028        -1.678192
 H         1.576845         1.964182        -0.747825
 H         4.390574         0.416565        -2.348611
 H         5.212818        -0.381238        -0.905173
 H         3.183757        -1.439012         0.797304
 H         4.102303         0.456325         1.763987
 H         3.203816         2.164357         1.724899
