19
Iteration:  1674
 C         0.258148        -0.828511         0.633447
 C         1.508861        -0.170842         0.101371
 C         1.997235         0.411133        -1.222242
 C         3.330293         0.540708        -0.506294
 C         4.476380        -0.403666        -0.981810
 O         3.606748        -1.591045        -0.533517
 C         2.895415        -0.685654         0.365519
 C         2.917738         1.662403         0.591722
 O         1.758705         0.969971         1.065171
 H         0.455056        -1.927467         0.794967
 H        -0.141733        -0.284221         1.536187
 H        -0.542938        -0.807595        -0.153016
 H         2.114750        -0.415171        -1.964993
 H         1.538426         1.235418        -1.678957
 H         4.566421        -0.469464        -2.075616
 H         5.397683        -0.316268        -0.416958
 H         3.121636        -0.797438         1.402496
 H         3.490982         1.934450         1.574397
 H         2.699314         2.657526         0.259506
