19
Iteration:  2925charge 0 multiplicity 1
 C         0.151153        -0.654989         0.489448
 C         1.523084        -0.169794         0.258747
 C         1.978920         0.782692        -0.947686
 C         3.360230         0.573578        -0.277518
 C         4.222635        -0.129060        -1.316668
 O         3.422069        -1.348093        -1.293067
 C         2.899413        -0.885618         0.076257
 C         3.207949         1.233965         1.130386
 O         1.955289         0.542873         1.480094
 H        -0.159551        -0.586028         1.552367
 H        -0.580685        -0.175276        -0.206155
 H         0.238934        -1.717895         0.322081
 H         1.977440         0.193465        -1.847472
 H         1.634507         1.702629        -1.065401
 H         4.372211         0.273007        -2.312574
 H         5.184734        -0.330196        -0.854014
 H         3.342045        -1.536449         0.902117
 H         3.958525         0.833312         1.879640
 H         3.027280         2.392674         1.238984
