19
Iteration:  2570charge 0 multiplicity 1
 C         0.254705        -0.772335         0.496774
 C         1.506618        -0.128136         0.217091
 C         1.913155         0.786591        -0.973324
 C         3.315565         0.460598        -0.291359
 C         4.367993        -0.242113        -1.126472
 O         3.488444        -1.430301        -1.076662
 C         2.776064        -0.920372         0.085292
 C         3.174430         1.388017         0.888808
 O         1.941361         0.752279         1.369873
 H         0.563370        -1.607574         1.194543
 H        -0.637859        -0.149056         1.035224
 H        -0.199866        -1.136390        -0.507525
 H         1.767940         0.429203        -2.003026
 H         1.460674         1.723163        -0.809232
 H         4.425613         0.326053        -2.108078
 H         5.316093        -0.603357        -0.752908
 H         3.034737        -1.554531         1.039538
 H         3.961617         1.316747         1.736152
 H         2.885942         2.413246         0.483492
