19
Iteration:  2630
 C         0.138751        -0.733531         0.414551
 C         1.544695        -0.192157         0.322327
 C         1.905293         0.667723        -0.889923
 C         3.243094         0.515571        -0.317203
 C         4.266476        -0.096811        -1.180805
 O         3.570320        -1.426398        -1.126582
 C         2.833994        -0.944527         0.147716
 C         3.288125         1.242587         0.978989
 O         1.903273         0.853998         1.286603
 H        -0.245541        -0.539204         1.424065
 H        -0.487977        -0.259813        -0.245841
 H         0.109590        -1.793191         0.343052
 H         1.785582         0.027645        -1.801782
 H         1.443745         1.697692        -0.916786
 H         4.349396         0.258930        -2.210112
 H         5.286105        -0.358061        -0.781822
 H         3.345073        -1.340940         0.925969
 H         3.979457         0.857737         1.640791
 H         3.367586         2.281348         0.913750
