19
Iteration:  2604charge 0 multiplicity 1
 C         0.134082        -0.742282         0.504024
 C         1.548871        -0.179323         0.231077
 C         1.936426         0.665536        -1.057289
 C         3.423898         0.582846        -0.272478
 C         4.378677        -0.281822        -1.271624
 O         3.421690        -1.392544        -1.106692
 C         2.913663        -0.774455         0.117181
 C         3.117799         1.336106         1.035856
 O         1.870388         0.720390         1.417517
 H        -0.027207        -0.905688         1.634282
 H        -0.743533        -0.045157         0.144683
 H         0.029689        -1.790971         0.050947
 H         1.965718         0.172642        -1.972159
 H         1.491355         1.602489        -1.130346
 H         4.530008         0.055716        -2.305241
 H         5.281888        -0.797851        -1.005108
 H         3.477483        -1.231049         0.982206
 H         3.925119         1.148780         1.827549
 H         3.107447         2.446033         0.921698
