19
Iteration:  3413
 C         0.044247        -0.644875         0.468772
 C         1.448336        -0.102699         0.264400
 C         1.857623         0.928076        -0.691661
 C         3.316493         0.532239        -0.290843
 C         4.289282         0.029463        -1.347977
 O         3.513729        -1.292535        -1.418196
 C         2.778085        -0.937627        -0.151461
 C         3.371459         0.959557         1.135553
 O         2.070695         0.449760         1.604772
 H        -0.515815        -0.652643        -0.420447
 H         0.173713        -1.593674         0.700373
 H        -0.441795        -0.112649         1.305607
 H         1.445430         0.761094        -1.735378
 H         1.474204         2.024649        -0.429355
 H         4.391065         0.570184        -2.309742
 H         5.284695        -0.203678        -0.803858
 H         3.031986        -1.720326         0.596317
 H         4.208533         0.379663         1.645945
 H         3.490912         2.033541         1.379264
