19
Iteration:  3432charge 0 multiplicity 1
 C         0.125156        -0.654774         0.526274
 C         1.514005        -0.092049         0.290246
 C         1.885642         1.015036        -0.672936
 C         3.335513         0.489651        -0.264378
 C         4.237644        -0.036480        -1.372341
 O         3.486681        -1.245800        -1.454950
 C         2.796619        -0.969991        -0.150440
 C         3.359490         0.933139         1.201698
 O         1.967582         0.434822         1.520591
 H        -0.216985        -1.021044        -0.427598
 H         0.081816        -1.550209         1.262491
 H        -0.528193         0.166463         0.768466
 H         1.773718         0.741952        -1.795146
 H         1.637282         2.042291        -0.435390
 H         4.161660         0.587375        -2.288044
 H         5.297892        -0.136659        -1.166130
 H         3.169261        -1.559602         0.680301
 H         4.064640         0.510675         1.866036
 H         3.397881         2.148752         1.341689
