19
Iteration:  2976
 C         0.152075        -0.725197         0.551167
 C         1.506499        -0.115220         0.292357
 C         1.858531         0.834315        -0.923397
 C         3.323118         0.539329        -0.290791
 C         4.291930        -0.113117        -1.178491
 O         3.490128        -1.378394        -1.321669
 C         2.895489        -0.899796        -0.088930
 C         3.270709         1.132496         1.060832
 O         1.942518         0.625039         1.491604
 H        -0.489168         0.133088         0.916159
 H        -0.308345        -0.856908        -0.418385
 H         0.115285        -1.676366         1.149777
 H         1.751028         0.427028        -1.896956
 H         1.397902         2.034235        -0.850438
 H         4.437977         0.340453        -2.170661
 H         5.264528        -0.379972        -0.630394
 H         3.211107        -1.491656         0.816801
 H         4.039591         0.688613         1.698914
 H         3.234550         2.174805         1.149509
