19
Iteration:  3414charge 0 multiplicity 1
 C         0.053090        -0.634900         0.461897
 C         1.443143        -0.102447         0.267567
 C         1.856238         0.929808        -0.688916
 C         3.310677         0.528875        -0.281693
 C         4.288416         0.028253        -1.354897
 O         3.520237        -1.290441        -1.420220
 C         2.779238        -0.938655        -0.151594
 C         3.374050         0.963085         1.135450
 O         2.064595         0.452763         1.604238
 H        -0.522423        -0.678255        -0.454528
 H         0.217503        -1.625159         0.765906
 H        -0.438682        -0.109768         1.319964
 H         1.457792         0.774486        -1.688899
 H         1.468497         2.021355        -0.436591
 H         4.378263         0.534266        -2.331024
 H         5.261552        -0.216298        -0.803851
 H         3.035179        -1.751289         0.572875
 H         4.218242         0.366847         1.659857
 H         3.468588         1.971292         1.353353
