19
Iteration:  3837charge 0 multiplicity 1
 C         0.093502        -0.609889         0.445982
 C         1.516192        -0.139412         0.306637
 C         1.948177         0.963690        -0.574456
 C         3.402099         0.634370        -0.236536
 C         4.171978         0.063912        -1.382340
 O         3.273064        -1.041425        -1.520316
 C         2.806472        -0.862686        -0.204018
 C         3.433059         0.731968         1.252187
 O         2.095866         0.232148         1.546845
 H        -0.047374        -1.550703         0.081268
 H        -0.214792        -0.670033         1.464450
 H        -0.596773        -0.036845        -0.116759
 H         1.865830         0.503388        -1.739394
 H         1.396358         2.005713        -0.424312
 H         4.246066         0.569018        -2.377980
 H         5.177090        -0.355103        -1.157680
 H         3.230337        -1.556733         0.558387
 H         4.219681         0.095893         1.864893
 H         3.517993         1.737513         1.686771
