19
Iteration:  2221charge 0 multiplicity 1
 C         0.144592        -0.695047         0.581271
 C         1.560109        -0.136897         0.179950
 C         2.005054         0.603579        -1.125179
 C         3.376791         0.601808        -0.348763
 C         4.346151        -0.285936        -1.196647
 O         3.534869        -1.512308        -0.929368
 C         2.936792        -0.770935         0.167506
 C         3.040283         1.388690         0.980302
 O         1.821097         0.731166         1.261943
 H         0.218622        -1.019017         1.555534
 H        -0.645624         0.096146         0.563044
 H        -0.067924        -1.453656        -0.148089
 H         1.881740        -0.173882        -1.969736
 H         1.563659         1.571535        -1.553121
 H         4.359748        -0.146628        -2.310417
 H         5.333216        -0.345282        -0.855212
 H         3.344305        -1.106554         1.205119
 H         3.746064         1.315541         1.822234
 H         2.810106         2.471159         1.069544
