19
Iteration:  2336
 C         0.135196        -0.678720         0.552250
 C         1.462432        -0.147750         0.267908
 C         1.924623         0.706839        -0.957211
 C         3.373180         0.435580        -0.321309
 C         4.385078        -0.234976        -1.252920
 O         3.659692        -1.483082        -1.007839
 C         2.838790        -0.927080         0.138865
 C         3.124065         1.352972         0.862436
 O         1.798836         0.843689         1.302885
 H        -0.794530        -0.086607         0.196325
 H         0.139235        -1.633349         0.059570
 H         0.128001        -0.930345         1.624892
 H         1.795241         0.284859        -1.899193
 H         1.416693         1.708700        -0.971696
 H         4.493395         0.026889        -2.283236
 H         5.373874        -0.236206        -0.737541
 H         3.294445        -1.477605         1.024885
 H         3.846579         1.191588         1.626409
 H         3.205909         2.475515         0.719586
