19
Iteration:  4863charge 0 multiplicity 1
 C         0.205593        -0.754036         0.348318
 C         1.504949        -0.113960         0.268155
 C         1.973366         1.078212        -0.537847
 C         3.384999         0.482233        -0.224729
 C         4.211947         0.041258        -1.398874
 O         3.255458        -1.080856        -1.564290
 C         2.716276        -0.867859        -0.133769
 C         3.440680         0.801345         1.239617
 O         2.036080         0.358273         1.646937
 H         0.166821        -1.542874        -0.374361
 H         0.050452        -1.178666         1.353034
 H        -0.484381         0.024804         0.364847
 H         1.666919         1.076314        -1.757930
 H         1.624276         2.116816        -0.257759
 H         4.312916         0.536762        -2.416686
 H         5.109034        -0.642718        -1.195764
 H         3.086170        -1.661631         0.526153
 H         4.174493         0.157055         1.712347
 H         3.525802         1.847610         1.550111
