19
Iteration:  2172charge 0 multiplicity 1
 C         0.136464        -0.778215         0.452100
 C         1.459439        -0.099763         0.273968
 C         1.856782         0.629148        -0.995626
 C         3.301725         0.487044        -0.336571
 C         4.373236        -0.213280        -1.057258
 O         3.617710        -1.550195        -0.995060
 C         2.876164        -0.989140         0.247516
 C         3.157198         1.464588         0.724541
 O         1.885059         0.931195         1.293779
 H         0.385732        -1.931110         0.368318
 H        -0.301643        -0.712806         1.471422
 H        -0.531294        -0.378108        -0.364401
 H         1.800020         0.044817        -1.906940
 H         1.526148         1.607400        -1.155077
 H         4.738220         0.204419        -1.995531
 H         5.321177        -0.212167        -0.389420
 H         3.339295        -1.605140         0.930504
 H         3.913966         1.550329         1.558297
 H         2.986315         2.509346         0.562293
