19
Iteration:  1231
 C         0.148456        -0.820707         0.563163
 C         1.459549        -0.248356         0.138272
 C         2.031170         0.070622        -1.252798
 C         3.373657         0.447902        -0.373677
 C         4.527143        -0.434352        -0.900152
 O         3.819973        -1.540733        -0.169811
 C         2.852795        -0.648496         0.544257
 C         2.897952         1.775039         0.162213
 O         1.589542         1.201087         0.863392
 H         0.208476        -1.937469         0.448672
 H         0.067219        -0.642671         1.654665
 H        -0.558979        -0.250212        -0.042605
 H         2.227648        -0.676918        -1.926162
 H         1.544765         0.949145        -1.788162
 H         4.549490        -0.474384        -2.007534
 H         5.544306        -0.270917        -0.436902
 H         3.265075        -0.642463         1.532941
 H         3.477464         2.298488         1.002842
 H         2.787047         2.564765        -0.533265
