19
Iteration:  2869
 C         0.184984        -0.801189         0.447369
 C         1.487109        -0.134702         0.229986
 C         1.910639         0.888942        -0.847845
 C         3.385457         0.532766        -0.287140
 C         4.328457        -0.159057        -1.253162
 O         3.453009        -1.370209        -1.196725
 C         2.758625        -0.957246        -0.013848
 C         3.259102         1.226755         1.030973
 O         1.953367         0.695523         1.461961
 H         0.530372        -1.768680         0.937483
 H        -0.442113        -0.255230         1.135301
 H        -0.384971        -1.077516        -0.448595
 H         1.723348         0.474501        -1.746212
 H         1.588470         1.882208        -0.859063
 H         4.328086         0.177000        -2.270894
 H         5.344144        -0.382487        -0.903073
 H         3.079022        -1.610160         0.872393
 H         4.013304         1.015081         1.868969
 H         3.100858         2.363590         1.052476
