19
Iteration:   231
 C         0.236163        -0.828047         0.783057
 C         1.517536        -0.274566         0.128516
 C         2.101437        -0.598917        -1.263303
 C         3.297928         0.330286        -0.712925
 C         4.728880        -0.423788        -0.242950
 O         3.977362        -1.228498         0.622770
 C         2.900324        -0.136109         0.762150
 C         2.585946         1.679211        -0.635957
 O         1.396238         1.277361         0.069555
 H        -0.550722        -0.287504         0.277172
 H         0.118823        -1.920723         0.516017
 H         0.176490        -0.698843         1.869865
 H         2.385980        -1.638776        -1.360376
 H         1.517758        -0.202057        -2.063964
 H         5.246234        -1.055414        -0.937827
 H         5.449185         0.265929         0.295231
 H         2.955488         0.423527         1.638743
 H         3.083874         2.359781         0.015431
 H         2.376102         2.194460        -1.578826
