19
Iteration:  2679
 C         0.187366        -0.653349         0.576456
 C         1.545317        -0.145807         0.163682
 C         1.959681         0.744081        -0.992289
 C         3.348771         0.587271        -0.375491
 C         4.304122        -0.215226        -1.176674
 O         3.445077        -1.448240        -1.084602
 C         2.978285        -0.784701         0.091526
 C         3.085773         1.292253         0.988484
 O         1.910668         0.570407         1.373657
 H        -0.410216        -0.127005         1.331449
 H        -0.365656        -0.607809        -0.425321
 H         0.195663        -1.717649         0.907316
 H         1.937420         0.191328        -2.008306
 H         1.505630         1.774371        -0.946756
 H         4.383545         0.006960        -2.272331
 H         5.285535        -0.346322        -0.681707
 H         3.419333        -1.393302         1.034700
 H         3.846437         1.140088         1.872691
 H         2.755169         2.402390         0.814052
