19
Iteration:  2573
 C         0.255612        -0.759474         0.507933
 C         1.519029        -0.103352         0.213983
 C         1.929899         0.784904        -0.983318
 C         3.349275         0.485213        -0.271420
 C         4.335264        -0.226228        -1.150996
 O         3.484205        -1.443674        -1.079976
 C         2.778355        -0.932365         0.105394
 C         3.142351         1.403926         0.879083
 O         1.931613         0.715106         1.377580
 H         0.568979        -1.556890         1.269776
 H        -0.605209        -0.208887         0.950582
 H        -0.128823        -1.189664        -0.443523
 H         1.820234         0.463756        -1.947273
 H         1.559944         1.782912        -0.851064
 H         4.528982         0.211771        -2.165481
 H         5.284298        -0.661507        -0.719118
 H         2.984486        -1.534334         0.914000
 H         3.870289         1.356683         1.670668
 H         2.902128         2.338244         0.514014
