19
Iteration:   841
 C         0.197677        -0.870437         0.619899
 C         1.510183        -0.208622         0.225038
 C         1.981698        -0.153357        -1.297057
 C         3.267660         0.388273        -0.551809
 C         4.604633        -0.417057        -0.650704
 O         3.876440        -1.493685         0.118758
 C         2.906782        -0.439943         0.699668
 C         2.880090         1.728261        -0.062247
 O         1.490449         1.293337         0.467012
 H         0.159101        -1.941217         0.281104
 H         0.084459        -0.748864         1.699963
 H        -0.600239        -0.239009         0.106886
 H         2.135828        -1.171948        -1.760872
 H         1.445016         0.433205        -1.989150
 H         5.030163        -0.882196        -1.548094
 H         5.312260         0.165209        -0.080927
 H         3.192880        -0.283181         1.762527
 H         3.471603         2.131929         0.821939
 H         2.866917         2.607117        -0.887161
