19
Iteration:  2461charge 0 multiplicity 1
 C         0.239852        -0.717472         0.448380
 C         1.542167        -0.159327         0.297336
 C         1.846814         0.609041        -1.045923
 C         3.280992         0.622413        -0.417665
 C         4.324425        -0.265232        -1.099502
 O         3.460305        -1.415493        -1.066868
 C         2.915008        -0.827280         0.129020
 C         3.203437         1.338741         0.953766
 O         1.904003         0.774458         1.380715
 H         0.189978        -1.657052        -0.137977
 H         0.043524        -0.977234         1.604306
 H        -0.522056         0.091196         0.136986
 H         1.788693        -0.084636        -1.903269
 H         1.462788         1.549315        -1.253472
 H         4.574685        -0.020549        -2.199472
 H         5.272782        -0.548112        -0.540562
 H         3.253536        -1.302389         1.020144
 H         3.842247         0.771092         1.682099
 H         3.185430         2.407537         0.945997
