19
Iteration:  2131
 C         0.242841        -0.709099         0.548764
 C         1.601041        -0.146522         0.143039
 C         1.960035         0.539665        -1.142993
 C         3.374897         0.595239        -0.342837
 C         4.305001        -0.296266        -1.160198
 O         3.502316        -1.493656        -0.829684
 C         2.970208        -0.811528         0.279975
 C         3.067687         1.453141         0.902030
 O         1.762895         0.783696         1.170448
 H        -0.176684        -1.192106        -0.376952
 H         0.350636        -1.464931         1.285391
 H        -0.445353         0.019016         0.944759
 H         1.919583         0.035069        -2.061356
 H         1.481002         1.557720        -1.338052
 H         4.412433        -0.213112        -2.261821
 H         5.270162        -0.395765        -0.733624
 H         3.088569        -1.172450         1.351237
 H         3.840324         1.344408         1.789326
 H         2.909972         2.522421         0.777030
