19
Iteration:  3883charge 0 multiplicity 1
 C         0.123949        -0.661269         0.592552
 C         1.498353        -0.145850         0.333913
 C         1.997955         1.034316        -0.604319
 C         3.394321         0.471602        -0.192339
 C         4.239799         0.077458        -1.351228
 O         3.377873        -1.095693        -1.629178
 C         2.662336        -0.938840        -0.252766
 C         3.355365         0.862811         1.241284
 O         2.059706         0.273001         1.505612
 H        -0.163222        -1.428257        -0.097668
 H        -0.156205        -1.023173         1.623307
 H        -0.551418         0.140325         0.237540
 H         1.831884         0.907738        -1.786970
 H         1.805251         2.102836        -0.106243
 H         4.316745         0.875878        -2.087634
 H         5.305675        -0.167115        -0.994207
 H         2.840361        -1.891055         0.232535
 H         4.294310         0.473023         1.864921
 H         3.365826         1.938677         1.434309
