19
Iteration:  4372charge 0 multiplicity 1
 C         0.154967        -0.646579         0.380661
 C         1.529882        -0.129240         0.293063
 C         1.971188         0.976154        -0.639844
 C         3.361466         0.535231        -0.172475
 C         4.172310        -0.011363        -1.380222
 O         3.206023        -1.042819        -1.583912
 C         2.858175        -0.899853        -0.153859
 C         3.429703         0.858237         1.315188
 O         2.057687         0.293637         1.624064
 H        -0.348325        -0.372732        -0.514872
 H         0.201448        -1.734835         0.424978
 H        -0.298436        -0.294503         1.225262
 H         1.703834         0.759805        -1.872667
 H         1.503816         1.961925        -0.567469
 H         4.300839         0.470695        -2.380012
 H         5.098190        -0.487689        -1.075824
 H         3.524362        -1.554498         0.581600
 H         4.171110         0.283101         1.817293
 H         3.342171         1.940978         1.567400
