19
Iteration:  3299
 C         0.159656        -0.696375         0.454078
 C         1.547806        -0.075052         0.276771
 C         1.910982         0.936828        -0.763083
 C         3.346633         0.662021        -0.346518
 C         4.273296        -0.111608        -1.372070
 O         3.375914        -1.328281        -1.342155
 C         2.828524        -0.823075        -0.052980
 C         3.324040         1.019124         1.181303
 O         1.989982         0.392820         1.533981
 H        -0.367699        -0.371235         1.325912
 H        -0.674001        -0.534337        -0.294121
 H         0.318519        -1.693428         0.541081
 H         1.710119         0.506685        -1.856235
 H         1.510325         1.956674        -0.750756
 H         4.307217         0.436033        -2.366193
 H         5.233805        -0.312800        -0.817058
 H         3.245849        -1.399495         0.773273
 H         4.082027         0.521024         1.679805
 H         3.244567         2.087958         1.720296
