19
Iteration:  3762charge 0 multiplicity 1
 C         0.228553        -0.690066         0.467750
 C         1.533536        -0.151939         0.214603
 C         1.926598         1.032614        -0.687520
 C         3.342779         0.546375        -0.191253
 C         4.196275         0.037894        -1.321891
 O         3.227394        -1.044823        -1.564393
 C         2.791276        -0.851235        -0.239872
 C         3.383632         0.721177         1.329751
 O         2.098210         0.360439         1.585338
 H         0.002827        -1.494442        -0.243668
 H         0.071450        -1.117810         1.536222
 H        -0.553213         0.134046         0.500495
 H         1.844586         0.748089        -1.658417
 H         1.555795         2.029833        -0.399765
 H         4.226477         0.597353        -2.274238
 H         5.178316        -0.437794        -1.021008
 H         3.043672        -1.687477         0.409862
 H         4.163849        -0.076293         1.741327
 H         3.576965         1.698213         1.765122
