19
Iteration:  4812
 C         0.154478        -0.664313         0.463376
 C         1.530432        -0.111526         0.251370
 C         1.954335         1.007048        -0.696091
 C         3.423977         0.467964        -0.167172
 C         4.237380         0.045900        -1.315852
 O         3.236371        -1.006767        -1.577609
 C         2.777438        -0.939537        -0.223313
 C         3.447183         0.880777         1.241876
 O         2.003021         0.263448         1.648526
 H        -0.193227        -1.053870        -0.530675
 H         0.233290        -1.560933         1.218890
 H        -0.507835         0.209944         0.961923
 H         1.693986         0.741474        -1.692018
 H         1.649713         1.959577        -0.361074
 H         4.279393         0.605787        -2.255760
 H         5.154405        -0.508384        -1.144058
 H         3.087521        -1.899481         0.318563
 H         4.255810         0.384864         1.774519
 H         3.365542         1.955801         1.479438
