19
Iteration:   580charge 0 multiplicity 1
 C         0.235267        -0.910914         0.663997
 C         1.506109        -0.217134         0.244302
 C         2.082148        -0.378578        -1.218781
 C         3.317960         0.377881        -0.575235
 C         4.648084        -0.431313        -0.508982
 O         3.817930        -1.423635         0.321684
 C         2.960486        -0.238350         0.763617
 C         2.747450         1.787985        -0.310853
 O         1.435678         1.284667         0.188201
 H        -0.285392        -0.294754         1.434902
 H        -0.468843        -1.084102        -0.088310
 H         0.518077        -1.867996         1.145710
 H         2.372710        -1.440113        -1.510042
 H         1.530187         0.264782        -1.909440
 H         4.907731        -0.878767        -1.496106
 H         5.566531        -0.065230         0.039426
 H         3.183366         0.136303         1.761224
 H         3.375767         2.367316         0.498567
 H         2.423128         2.406609        -1.162191
