19
Iteration:  2999
 C         0.125799        -0.752716         0.507603
 C         1.480354        -0.097579         0.212645
 C         1.929202         0.778735        -0.909484
 C         3.353102         0.575678        -0.328191
 C         4.345176        -0.149448        -1.281319
 O         3.379626        -1.224363        -1.283238
 C         2.840534        -0.862287         0.071740
 C         3.312959         1.147828         1.115441
 O         1.988095         0.522540         1.457835
 H        -0.689627         0.027597         0.377035
 H        -0.148410        -1.496026        -0.175983
 H         0.226070        -1.156933         1.549550
 H         1.841714         0.274768        -1.866879
 H         1.305925         1.946882        -0.904701
 H         4.522943         0.063004        -2.343102
 H         5.299852        -0.453806        -0.693414
 H         3.051689        -1.351533         1.071372
 H         4.094052         0.732492         1.759021
 H         3.122959         2.139042         1.326293
