19
Iteration:   397charge 0 multiplicity 1
 C         0.193575        -0.949403         0.771091
 C         1.460453        -0.283590         0.193209
 C         2.131359        -0.510682        -1.127122
 C         3.341731         0.429100        -0.609661
 C         4.613014        -0.381258        -0.517971
 O         3.921701        -1.311318         0.490645
 C         2.864740        -0.308392         0.818063
 C         2.772475         1.774437        -0.460596
 O         1.412982         1.357912        -0.002961
 H        -0.489157        -0.070772         1.123815
 H        -0.296838        -1.489990        -0.027616
 H         0.535116        -1.704096         1.545744
 H         2.521167        -1.559818        -1.205243
 H         1.610033        -0.122595        -2.045897
 H         5.071322        -0.924577        -1.339402
 H         5.435841         0.104184         0.099182
 H         2.926051         0.080080         1.848883
 H         3.463175         2.335245         0.261597
 H         2.491424         2.564864        -1.301517
