19
Iteration:   248
 C         0.274691        -0.804027         0.763732
 C         1.480553        -0.278832         0.077025
 C         2.183234        -0.497876        -1.255437
 C         3.348492         0.332628        -0.572391
 C         4.641743        -0.388536        -0.357115
 O         3.958479        -1.266125         0.716356
 C         2.878994        -0.318036         0.736987
 C         2.591875         1.736218        -0.696316
 O         1.376152         1.272478         0.096133
 H        -0.722386        -0.857205         0.287845
 H         0.490279        -1.772406         1.229820
 H         0.182706        -0.031017         1.563850
 H         2.489039        -1.560937        -1.422303
 H         1.743376        -0.123738        -2.219205
 H         5.175979        -0.922962        -1.210961
 H         5.365959         0.257113         0.122013
 H         2.992547         0.331846         1.701581
 H         3.075419         2.591448        -0.090504
 H         2.211092         1.804191        -1.743086
