19
Iteration:  4449charge 0 multiplicity 1
 C         0.070892        -0.593774         0.461200
 C         1.511246        -0.193572         0.272047
 C         1.929191         0.949876        -0.670834
 C         3.365895         0.559401        -0.214427
 C         4.226804         0.036236        -1.321382
 O         3.235817        -0.984264        -1.608127
 C         2.820587        -0.902914        -0.172606
 C         3.426003         0.843023         1.277495
 O         2.143118         0.208307         1.607761
 H        -0.286230        -1.328626        -0.212818
 H        -0.092769        -1.009892         1.473660
 H        -0.535861         0.268354         0.481257
 H         1.780705         0.559059        -1.924183
 H         1.604836         2.004374        -0.535306
 H         4.503771         0.583827        -2.272657
 H         5.118910        -0.521360        -0.882410
 H         3.131091        -1.688571         0.413173
 H         4.208659         0.393976         1.908291
 H         3.451103         1.949173         1.531136
