19
Iteration:  1676
 C         0.237712        -0.833422         0.633988
 C         1.487549        -0.178091         0.092068
 C         2.011113         0.423492        -1.215611
 C         3.328420         0.545447        -0.495599
 C         4.468135        -0.409100        -0.985547
 O         3.628999        -1.600807        -0.546696
 C         2.885727        -0.688304         0.376963
 C         2.919758         1.674001         0.587188
 O         1.769549         0.971868         1.063489
 H         0.474603        -1.934571         0.815031
 H        -0.122936        -0.226254         1.483743
 H        -0.564692        -0.865536        -0.095033
 H         2.111185        -0.416219        -2.010112
 H         1.524568         1.266898        -1.646870
 H         4.552171        -0.499286        -2.082489
 H         5.420888        -0.326042        -0.373714
 H         3.161033        -0.747437         1.458615
 H         3.578810         1.925094         1.585979
 H         2.582670         2.657238         0.238920
