19
Iteration:  1782
 C         0.206886        -0.856956         0.590383
 C         1.491173        -0.157913         0.241703
 C         1.939952         0.541642        -1.166345
 C         3.279895         0.442622        -0.406757
 C         4.444093        -0.335678        -1.038243
 O         3.753060        -1.670494        -0.585848
 C         2.880496        -0.844632         0.272637
 C         2.981880         1.656291         0.554894
 O         1.732935         1.060612         1.114744
 H        -0.425948        -0.016783         1.024766
 H        -0.339817        -1.154439        -0.323619
 H         0.373212        -1.712033         1.263671
 H         2.029202        -0.037806        -2.172303
 H         1.531072         1.499718        -1.318271
 H         4.671841        -0.093918        -2.103058
 H         5.416217        -0.335518        -0.564196
 H         3.061499        -1.120698         1.317889
 H         3.652775         1.831585         1.403930
 H         2.719084         2.727589        -0.000125
