19
Iteration:  2310charge 0 multiplicity 1
 C         0.170240        -0.779441         0.577509
 C         1.496280        -0.184195         0.119731
 C         2.006090         0.785720        -1.074956
 C         3.407247         0.553738        -0.288861
 C         4.288365        -0.289203        -1.186480
 O         3.492613        -1.506114        -0.943176
 C         2.878858        -0.824432         0.173728
 C         3.091458         1.431999         0.935691
 O         1.890590         0.730379         1.270071
 H        -0.414879        -0.031101         0.953089
 H        -0.376616        -1.325176        -0.190609
 H         0.408284        -1.511995         1.334485
 H         2.152984         0.055090        -2.003901
 H         1.495034         1.737015        -1.352867
 H         4.323375        -0.022738        -2.255584
 H         5.292087        -0.317537        -0.851060
 H         3.275387        -1.294693         1.127805
 H         3.818200         1.481743         1.762415
 H         2.986555         2.484918         0.731727
