19
Iteration:  2027charge 0 multiplicity 1
 C         0.057757        -0.803016         0.567386
 C         1.445153        -0.149539         0.220243
 C         2.021830         0.546003        -1.079096
 C         3.399594         0.445090        -0.334303
 C         4.415562        -0.267961        -1.188194
 O         3.689909        -1.537280        -0.790630
 C         2.920988        -0.879234         0.232402
 C         3.071846         1.503895         0.710515
 O         1.745192         0.986837         1.218704
 H        -0.431949        -0.195576         1.334802
 H        -0.717294        -0.912462        -0.274576
 H         0.293328        -1.772421         1.141748
 H         2.091245        -0.044364        -1.978530
 H         1.669565         1.569644        -1.217432
 H         4.323556        -0.134377        -2.259660
 H         5.449568        -0.311861        -0.748069
 H         3.195168        -1.072981         1.238866
 H         3.604169         1.644658         1.659149
 H         2.728466         2.471416         0.271381
