19
Iteration:  2744
 C         0.227433        -0.748473         0.511055
 C         1.527729        -0.195530         0.225942
 C         1.951528         0.769227        -0.936367
 C         3.346897         0.596818        -0.306225
 C         4.274025        -0.192689        -1.240827
 O         3.499996        -1.419138        -1.170140
 C         2.842734        -0.890714         0.075283
 C         3.227119         1.242725         1.056322
 O         1.831316         0.753550         1.402339
 H        -0.534426        -0.457659        -0.150871
 H         0.298807        -1.824760         0.220443
 H        -0.058692        -0.553210         1.544030
 H         1.758744         0.331025        -2.038322
 H         1.516871         1.863245        -0.850662
 H         4.316176         0.095567        -2.344757
 H         5.342154        -0.267492        -0.846078
 H         3.143449        -1.523916         1.008990
 H         4.023664         0.834627         1.745471
 H         3.275162         2.354081         0.935376
