19
Iteration:   954charge 0 multiplicity 1
 C         0.154717        -0.775951         0.603209
 C         1.454432        -0.181891         0.138201
 C         2.046768        -0.132002        -1.333685
 C         3.298715         0.455647        -0.532708
 C         4.569422        -0.427980        -0.746368
 O         3.900072        -1.526750         0.063523
 C         2.924164        -0.538200         0.602057
 C         2.835145         1.801694         0.035677
 O         1.558504         1.190423         0.689377
 H        -0.820242        -0.274210         0.295151
 H         0.094787        -1.871286         0.210586
 H         0.225090        -0.645419         1.704013
 H         2.171568        -1.166573        -1.682300
 H         1.335743         0.503962        -1.975403
 H         4.812966        -0.789163        -1.739789
 H         5.471090        -0.165271        -0.171298
 H         3.253873        -0.381213         1.622336
 H         3.467049         2.427456         0.883347
 H         2.409528         2.515427        -0.814645
