19
Iteration:   889charge 0 multiplicity 1
 C         0.206633        -0.794415         0.665682
 C         1.511950        -0.164683         0.126765
 C         2.163184        -0.149723        -1.272191
 C         3.333971         0.461821        -0.554866
 C         4.593535        -0.504202        -0.704870
 O         3.787624        -1.461863         0.090798
 C         2.921513        -0.513236         0.598055
 C         2.743695         1.741298        -0.014929
 O         1.480681         1.233649         0.596896
 H         0.468251        -1.017353         1.726419
 H        -0.721530        -0.134112         0.588895
 H         0.090237        -1.760469         0.191972
 H         2.307735        -1.143713        -1.688211
 H         1.688482         0.490869        -2.129009
 H         4.812732        -0.779290        -1.736734
 H         5.479728        -0.272811        -0.063441
 H         3.094465        -0.243722         1.635710
 H         3.492524         2.285223         0.681063
 H         2.451691         2.496014        -0.760300
