19
Iteration:  1153
 C         0.245740        -0.802000         0.601439
 C         1.500068        -0.194735         0.108624
 C         1.983803         0.094715        -1.307769
 C         3.309301         0.427566        -0.446768
 C         4.523759        -0.385466        -0.744105
 O         3.791391        -1.587410        -0.112819
 C         2.912988        -0.647233         0.553103
 C         2.869478         1.750308         0.150190
 O         1.570122         1.189278         0.757184
 H        -0.546246        -0.048970         0.508445
 H         0.144534        -1.789090         0.166056
 H         0.482804        -0.935730         1.700746
 H         2.199770        -0.783872        -1.944295
 H         1.575643         0.939510        -1.839240
 H         4.747837        -0.482963        -1.787002
 H         5.454224        -0.051743        -0.319162
 H         3.087704        -0.741125         1.616330
 H         3.514653         2.215941         0.888190
 H         2.565130         2.314274        -0.702793
