19
Iteration:  4843
 C         0.158228        -0.779378         0.431646
 C         1.536469        -0.042287         0.242310
 C         1.949067         1.146159        -0.573698
 C         3.451604         0.585666        -0.174594
 C         4.156103        -0.011399        -1.349552
 O         3.217954        -1.166414        -1.579298
 C         2.824347        -0.862798        -0.233925
 C         3.433888         0.808523         1.347004
 O         2.068624         0.341940         1.537159
 H         0.072399        -1.521061        -0.395252
 H        -0.000528        -1.466189         1.372145
 H        -0.921487        -0.272097         0.403253
 H         1.550362         1.208825        -1.695174
 H         1.578097         2.101368        -0.198616
 H         4.281570         0.452426        -2.390574
 H         5.172879        -0.630405        -1.061830
 H         3.163203        -1.647993         0.320328
 H         4.113571         0.190503         1.858053
 H         3.444448         1.822784         1.743336
