19
Iteration:  2500
 C         0.067290        -0.710292         0.568183
 C         1.497117        -0.182849         0.179200
 C         2.030002         0.717058        -0.977560
 C         3.372738         0.518320        -0.254502
 C         4.307269        -0.185582        -1.193719
 O         3.578264        -1.463977        -1.064710
 C         2.813519        -0.994947         0.112395
 C         3.144767         1.439085         0.894215
 O         1.927723         0.718802         1.354792
 H         0.088412        -1.796214         0.498273
 H        -0.297078        -0.454171         1.488908
 H        -0.630072        -0.379691        -0.149073
 H         1.996504         0.394029        -2.038769
 H         1.607652         1.816128        -0.848366
 H         4.108229         0.030319        -2.215233
 H         5.368678        -0.146726        -0.999921
 H         3.241136        -1.523839         1.034480
 H         3.974379         1.438403         1.594707
 H         2.814714         2.505077         0.618687
