19
Iteration:  3244
 C         0.117537        -0.620728         0.552804
 C         1.563314        -0.201544         0.320250
 C         1.929014         0.771996        -0.823031
 C         3.385724         0.476606        -0.245423
 C         4.335517        -0.066873        -1.303197
 O         3.362318        -1.145043        -1.467990
 C         2.861299        -0.954084        -0.097655
 C         3.281079         1.033944         1.186859
 O         1.932331         0.558819         1.536982
 H        -0.233780        -0.505384         1.556094
 H        -0.521209        -0.008930        -0.135724
 H        -0.021789        -1.613650         0.346664
 H         1.839708         0.280287        -1.906389
 H         1.485438         1.813142        -0.821761
 H         4.402863         0.500410        -2.301095
 H         5.423568        -0.295312        -1.070107
 H         3.327794        -1.680495         0.576059
 H         3.927811         0.723601         1.941026
 H         3.127611         2.070724         1.181604
