19
Iteration:  3644
 C         0.213450        -0.743160         0.475346
 C         1.512656        -0.100173         0.205598
 C         1.948849         1.084004        -0.600160
 C         3.361943         0.490024        -0.183251
 C         4.213737         0.038330        -1.351140
 O         3.299222        -1.154410        -1.541772
 C         2.723965        -0.955028        -0.230343
 C         3.396292         0.812596         1.289041
 O         2.046631         0.448069         1.546020
 H        -0.714247        -0.122907         0.555331
 H        -0.048488        -1.386021        -0.365841
 H         0.442922        -1.485086         1.281428
 H         1.789321         1.031727        -1.646184
 H         1.675995         2.045891        -0.045811
 H         4.198573         0.646060        -2.220530
 H         5.230213        -0.228250        -1.040329
 H         2.940127        -1.746734         0.499214
 H         4.132774         0.311141         1.807983
 H         3.520556         1.893618         1.396261
