19
Iteration:  2298
 C         0.263478        -0.758861         0.519290
 C         1.563161        -0.095548         0.188482
 C         1.983932         0.614510        -1.090142
 C         3.323810         0.597891        -0.343434
 C         4.308354        -0.280441        -1.167878
 O         3.439205        -1.464193        -0.954879
 C         2.889094        -0.801099         0.181134
 C         3.120525         1.400053         0.919798
 O         1.864219         0.751722         1.321065
 H        -0.339591        -0.188102         1.132160
 H        -0.248094        -0.944152        -0.464565
 H         0.425506        -1.694161         1.040131
 H         1.957658        -0.023612        -2.088313
 H         1.500552         1.597726        -1.254103
 H         4.505473        -0.086223        -2.253502
 H         5.177646        -0.547384        -0.611264
 H         3.198373        -1.120640         1.196124
 H         3.824724         1.053386         1.728849
 H         2.868254         2.415161         0.791531
