19
Iteration:   970
 C         0.262142        -0.728475         0.620186
 C         1.541478        -0.231062         0.145982
 C         2.043771        -0.062885        -1.316521
 C         3.300341         0.472376        -0.582550
 C         4.495950        -0.450820        -0.698642
 O         3.858753        -1.525035         0.029253
 C         2.915834        -0.524925         0.594720
 C         2.706281         1.721199         0.041471
 O         1.580496         1.178648         0.697768
 H        -0.455462        -0.589330        -0.163542
 H         0.222833        -1.726727         0.897682
 H        -0.087610        -0.149462         1.491169
 H         2.360259        -1.067612        -1.713989
 H         1.752641         0.596709        -2.074003
 H         4.856629        -0.751667        -1.737128
 H         5.418161        -0.056709        -0.211826
 H         2.966088        -0.300015         1.679428
 H         3.434545         1.962859         0.727773
 H         2.469470         2.465746        -0.608687
