19
Iteration:   565charge 0 multiplicity 1
 C         0.315199        -0.897827         0.694498
 C         1.486245        -0.110457         0.174082
 C         2.035348        -0.361311        -1.205594
 C         3.329363         0.387624        -0.582072
 C         4.530430        -0.465294        -0.485719
 O         3.960125        -1.429800         0.363658
 C         2.906963        -0.375748         0.780026
 C         2.743186         1.748095        -0.354184
 O         1.396171         1.357103         0.174405
 H         0.061270        -0.851148         1.748789
 H        -0.577433        -0.663040         0.004027
 H         0.604781        -1.933717         0.472945
 H         2.184213        -1.396938        -1.434205
 H         1.531403         0.267008        -1.916988
 H         5.129452        -0.928742        -1.315436
 H         5.265994         0.157134         0.083038
 H         3.217643         0.048062         1.785127
 H         3.221106         2.201873         0.507454
 H         2.651411         2.360157        -1.227038
