19
Iteration:  1547
 C         0.180286        -0.785929         0.565534
 C         1.559117        -0.168285         0.306339
 C         1.936570         0.282077        -1.189684
 C         3.246266         0.436739        -0.363039
 C         4.409186        -0.269922        -0.864328
 O         3.766439        -1.582163        -0.538479
 C         2.933746        -0.849521         0.383075
 C         3.009033         1.608134         0.398183
 O         1.668575         1.201989         0.920513
 H        -0.711112        -0.113660         0.691261
 H         0.069949        -1.360801        -0.346410
 H         0.283933        -1.390218         1.418068
 H         2.072292        -0.658364        -1.928678
 H         1.426627         1.183792        -1.495382
 H         4.608717        -0.411355        -1.892161
 H         5.393118        -0.233105        -0.387799
 H         3.310792        -1.069531         1.453826
 H         3.581077         1.616727         1.284377
 H         2.869192         2.666864        -0.175153
