19
Iteration:  4880charge 0 multiplicity 1
 C         0.050061        -0.688836         0.395739
 C         1.518779        -0.125291         0.325837
 C         1.992172         0.979570        -0.653301
 C         3.398881         0.514364        -0.190556
 C         4.236161         0.030666        -1.378868
 O         3.188062        -1.033479        -1.550756
 C         2.821847        -0.941194        -0.171005
 C         3.430995         0.864556         1.278261
 O         2.108352         0.298999         1.584643
 H         0.053352        -1.347837        -0.530896
 H        -0.052267        -1.345217         1.263562
 H        -0.808346         0.134000         0.379496
 H         1.815308         0.810612        -1.616296
 H         1.788547         2.008100        -0.379577
 H         4.139470         0.779645        -2.129103
 H         5.231032        -0.196862        -1.130037
 H         3.199758        -1.806842         0.499161
 H         4.197012         0.328837         1.919365
 H         3.459133         1.955362         1.463264
