19
Iteration:  3958
 C         0.062066        -0.800564         0.348957
 C         1.417179        -0.105160         0.249685
 C         2.052771         1.097040        -0.556711
 C         3.368845         0.483070        -0.197352
 C         4.156236         0.048222        -1.433384
 O         3.351561        -1.186050        -1.538283
 C         2.720710        -0.867982        -0.162511
 C         3.419612         0.836928         1.279461
 O         2.140896         0.377652         1.634587
 H        -0.544816        -0.722423        -0.461702
 H         0.157243        -1.844002         0.621532
 H        -0.480880        -0.285154         1.098069
 H         1.802958         1.008158        -1.800326
 H         1.861625         2.234903        -0.172374
 H         4.031558         0.831323        -2.212138
 H         5.170501        -0.033493        -1.221345
 H         3.108352        -1.539140         0.705767
 H         4.216418         0.265739         1.834217
 H         3.584811         1.889457         1.285456
