19
Iteration:  2311
 C         0.160885        -0.787351         0.579543
 C         1.489957        -0.183776         0.116006
 C         2.004678         0.787024        -1.067996
 C         3.409296         0.550228        -0.294477
 C         4.297213        -0.289737        -1.187579
 O         3.499448        -1.506755        -0.945151
 C         2.878313        -0.828134         0.173444
 C         3.096542         1.435181         0.944317
 O         1.886669         0.730993         1.269106
 H        -0.422994         0.002795         0.922044
 H        -0.374043        -1.328299        -0.155247
 H         0.412984        -1.484924         1.363143
 H         2.140316         0.097031        -2.008348
 H         1.516427         1.753396        -1.349190
 H         4.290964        -0.014286        -2.231117
 H         5.304622        -0.320837        -0.885373
 H         3.266154        -1.329215         1.147880
 H         3.802946         1.507296         1.714006
 H         2.996470         2.501094         0.702210
