19
Iteration:  2359
 C         0.082345        -0.684931         0.462743
 C         1.487687        -0.165846         0.301031
 C         1.857271         0.478317        -1.095219
 C         3.298376         0.552119        -0.358159
 C         4.321720        -0.159812        -1.125154
 O         3.557025        -1.450631        -1.050613
 C         2.925352        -0.840719         0.153401
 C         3.265451         1.334389         0.915485
 O         1.914059         0.846303         1.364631
 H        -0.623701        -0.156970        -0.312450
 H        -0.007423        -1.788051         0.274107
 H        -0.333980        -0.533684         1.480872
 H         1.723236        -0.169727        -1.883782
 H         1.272133         1.384448        -1.273148
 H         4.612673         0.150262        -2.126783
 H         5.229068        -0.347940        -0.479611
 H         3.453838        -1.179409         1.082642
 H         4.084816         0.915074         1.542181
 H         3.350383         2.413592         1.182513
