19
Iteration:  2990charge 0 multiplicity 1
 C         0.122590        -0.710460         0.496613
 C         1.483580        -0.137603         0.249154
 C         1.904740         0.778676        -0.883756
 C         3.333249         0.591808        -0.358374
 C         4.397624        -0.121335        -1.255810
 O         3.384516        -1.278932        -1.256576
 C         2.810192        -0.819770         0.016151
 C         3.275214         1.101918         1.084660
 O         1.974062         0.543756         1.478330
 H        -0.618308        -0.028757         0.791372
 H        -0.128558        -1.366726        -0.258166
 H         0.255772        -1.259594         1.381512
 H         1.749432         0.169696        -1.818066
 H         1.532819         1.895360        -1.035476
 H         4.659373         0.296387        -2.236131
 H         5.341245        -0.430279        -0.755006
 H         3.328657        -1.357974         0.845214
 H         4.061673         0.635233         1.700338
 H         3.304420         2.188864         1.209293
