19
Iteration:  4262charge 0 multiplicity 1
 C         0.162112        -0.718057         0.325978
 C         1.481143        -0.136742         0.300560
 C         2.012011         1.021421        -0.539538
 C         3.399725         0.418403        -0.151198
 C         4.231138         0.041953        -1.352620
 O         3.187005        -1.004666        -1.596937
 C         2.740748        -0.942137        -0.197290
 C         3.423189         0.906374         1.207622
 O         2.104668         0.334726         1.654534
 H         0.198099        -1.565728        -0.428410
 H        -0.006839        -1.132334         1.353447
 H        -0.616767        -0.009318         0.063584
 H         1.748838         0.823904        -1.668565
 H         1.717178         1.928179        -0.109898
 H         4.331240         0.659974        -2.263997
 H         5.144204        -0.443141        -1.066198
 H         3.046868        -1.942773         0.410691
 H         4.180121         0.441083         1.821124
 H         3.341365         2.043361         1.400877
