19
Iteration:  4592charge 0 multiplicity 1
 C         0.109048        -0.625879         0.506073
 C         1.530258        -0.165369         0.259721
 C         1.937459         1.045132        -0.669826
 C         3.391104         0.513495        -0.134373
 C         4.235437         0.032840        -1.377715
 O         3.288250        -1.094203        -1.605258
 C         2.761242        -0.924898        -0.209455
 C         3.348730         0.863297         1.300652
 O         2.095301         0.262704         1.586662
 H        -0.392828        -0.462234        -0.442785
 H         0.084857        -1.690851         0.831340
 H        -0.271140         0.074911         1.298432
 H         1.904216         0.569815        -1.716537
 H         1.687315         2.063940        -0.482416
 H         4.298929         0.795324        -2.240768
 H         5.301316        -0.383407        -1.252837
 H         3.110874        -1.794337         0.534765
 H         4.169052         0.405441         1.902103
 H         3.363266         2.032621         1.318866
