19
Iteration:  4259
 C         0.155103        -0.725584         0.318354
 C         1.518751        -0.110412         0.297816
 C         2.000709         1.005944        -0.551063
 C         3.421086         0.430358        -0.150574
 C         4.219399         0.020820        -1.354222
 O         3.183438        -0.997002        -1.603020
 C         2.742370        -0.945814        -0.190113
 C         3.411091         0.917883         1.224878
 O         2.104501         0.319614         1.662422
 H         0.152507        -1.544102        -0.379138
 H        -0.098523        -1.124559         1.243761
 H        -0.624489        -0.065927         0.108288
 H         1.753940         0.859850        -1.649957
 H         1.677521         2.042531        -0.091128
 H         4.287164         0.673008        -2.192002
 H         5.176330        -0.481451        -1.134747
 H         3.058121        -1.949787         0.461941
 H         4.199976         0.486319         1.803250
 H         3.341252         2.001958         1.295100
