19
Iteration:  1108
 C         0.080515        -0.806069         0.559241
 C         1.498569        -0.215117         0.172161
 C         2.001968        -0.091887        -1.257733
 C         3.295185         0.487967        -0.474663
 C         4.535681        -0.326207        -0.801571
 O         3.827088        -1.557360        -0.134522
 C         3.000377        -0.641311         0.640558
 C         2.927474         1.741557         0.168842
 O         1.561971         1.277694         0.701237
 H        -0.213305        -0.296957         1.482326
 H        -0.613810        -0.651205        -0.268490
 H         0.198867        -1.930438         0.725238
 H         2.283240        -1.148479        -1.645294
 H         1.335754         0.424341        -1.881142
 H         4.763762        -0.482462        -1.824735
 H         5.492218        -0.173913        -0.320507
 H         3.225113        -0.310562         1.639407
 H         3.553912         1.849343         1.019149
 H         2.827026         2.598847        -0.503825
