19
Iteration:  4410charge 0 multiplicity 1
 C         0.140270        -0.788175         0.478711
 C         1.475057        -0.056474         0.226339
 C         2.026344         1.156775        -0.593162
 C         3.365410         0.485367        -0.205984
 C         4.158216         0.002111        -1.404432
 O         3.330331        -1.139074        -1.570476
 C         2.715750        -0.912081        -0.222794
 C         3.439796         0.812214         1.281158
 O         2.022318         0.368619         1.575687
 H        -0.467759        -1.012246        -0.466529
 H         0.452044        -1.740261         0.962348
 H        -0.630883        -0.188517         1.160198
 H         1.909248         1.121407        -1.530588
 H         1.857883         2.113440        -0.093666
 H         4.279398         0.658775        -2.251876
 H         5.166722        -0.215709        -0.997046
 H         3.302803        -1.732313         0.520768
 H         4.227741         0.233754         1.916070
 H         3.559052         1.867242         1.525797
