19
Iteration:  1111
 C         0.080449        -0.802909         0.563117
 C         1.494162        -0.249168         0.184955
 C         2.007678        -0.093268        -1.259480
 C         3.314078         0.512327        -0.481637
 C         4.549969        -0.306531        -0.802869
 O         3.812371        -1.580367        -0.130450
 C         3.005268        -0.628105         0.613036
 C         2.932866         1.735365         0.171983
 O         1.547553         1.276680         0.704678
 H        -0.301070        -0.237230         1.417739
 H        -0.628433        -0.693223        -0.248442
 H         0.164376        -1.866115         0.826698
 H         2.327987        -1.054489        -1.631203
 H         1.319586         0.439960        -1.947951
 H         4.745829        -0.617304        -1.843723
 H         5.475145        -0.207624        -0.289050
 H         3.329295        -0.262898         1.568975
 H         3.570544         1.969755         1.152703
 H         2.779320         2.565230        -0.491597
