19
Iteration:  3339
 C         0.102122        -0.803602         0.422282
 C         1.460866        -0.151168         0.286079
 C         2.008480         0.869418        -0.696612
 C         3.408449         0.501040        -0.210286
 C         4.301813        -0.033408        -1.318429
 O         3.282081        -1.175189        -1.451007
 C         2.790140        -0.963214        -0.013028
 C         3.395220         1.079500         1.132037
 O         1.997123         0.576881         1.492602
 H        -0.807252        -0.148427         0.750207
 H        -0.174769        -1.298313        -0.647133
 H         0.379116        -1.530478         1.300123
 H         1.757004         0.758421        -1.665268
 H         1.707394         1.863123        -0.347605
 H         4.268634         0.436721        -2.279486
 H         5.305612        -0.396621        -1.201244
 H         3.143674        -1.786513         0.655429
 H         4.168216         0.650724         1.905020
 H         3.331738         2.221536         1.194971
