19
Iteration:  2660charge 0 multiplicity 1
 C         0.051878        -0.750304         0.497257
 C         1.443427        -0.155076         0.204944
 C         1.898663         0.777318        -0.970358
 C         3.344389         0.558699        -0.309292
 C         4.430686        -0.231332        -1.302378
 O         3.604232        -1.412970        -1.074089
 C         2.816250        -0.902668         0.103438
 C         3.209306         1.356700         0.987557
 O         1.918280         0.682084         1.419677
 H        -0.187642        -0.201579         1.533434
 H        -0.770419        -0.583770        -0.250031
 H         0.143173        -1.844256         0.779530
 H         1.719467         0.204783        -1.771939
 H         1.548160         1.745908        -1.027920
 H         4.395547         0.009388        -2.353831
 H         5.422314        -0.461479        -0.983272
 H         3.159671        -1.410834         1.027175
 H         4.030735         1.154331         1.746094
 H         3.003298         2.417875         0.798084
