19
Iteration:  2300
 C         0.250957        -0.756748         0.528485
 C         1.561207        -0.113717         0.172909
 C         1.996211         0.648179        -1.098218
 C         3.335847         0.594837        -0.314631
 C         4.293781        -0.279871        -1.180575
 O         3.445545        -1.473875        -0.949185
 C         2.883706        -0.800476         0.170797
 C         3.117493         1.399369         0.920095
 O         1.877323         0.745770         1.311801
 H        -0.361649        -0.188092         1.134266
 H        -0.233937        -1.008600        -0.391494
 H         0.402879        -1.663006         1.090414
 H         2.004291        -0.030164        -2.060345
 H         1.471566         1.608667        -1.268589
 H         4.489780        -0.101232        -2.220284
 H         5.160025        -0.504326        -0.628573
 H         3.237921        -1.119162         1.236622
 H         3.717772         1.097790         1.692999
 H         2.829952         2.438743         0.788650
