19
Iteration:   324charge 0 multiplicity 1
 C         0.242572        -0.808782         0.643890
 C         1.491738        -0.251498         0.129035
 C         2.120824        -0.508132        -1.224840
 C         3.256481         0.316603        -0.564085
 C         4.632599        -0.350941        -0.466253
 O         3.990089        -1.222827         0.639269
 C         2.894006        -0.283560         0.777318
 C         2.678446         1.628693        -0.592873
 O         1.400389         1.291623         0.202029
 H         0.490021        -1.606672         1.379595
 H        -0.220020         0.032345         1.206430
 H        -0.440225        -1.253475        -0.117877
 H         2.384279        -1.607369        -1.273763
 H         1.614281        -0.173356        -2.154849
 H         4.790748        -1.061961        -1.340202
 H         5.522000         0.185843        -0.089407
 H         3.021154         0.191974         1.822959
 H         3.335897         2.480751        -0.143871
 H         2.607419         2.003669        -1.595306
