19
Iteration:  3252
 C         0.142667        -0.639052         0.540697
 C         1.551212        -0.216032         0.313012
 C         1.937578         0.781009        -0.777100
 C         3.353583         0.480290        -0.218357
 C         4.347379        -0.003184        -1.317838
 O         3.378304        -1.206522        -1.495121
 C         2.825085        -0.993339        -0.099172
 C         3.236319         1.069746         1.200736
 O         1.966631         0.559261         1.506676
 H        -0.184777        -0.293413         1.556686
 H        -0.551337         0.043062        -0.144045
 H        -0.142160        -1.719830         0.337555
 H         1.801557         0.364705        -1.698001
 H         1.691026         1.842669        -0.786424
 H         4.355499         0.569743        -2.234722
 H         5.291882        -0.308465        -0.862246
 H         3.166979        -1.839809         0.529097
 H         4.105287         0.804269         1.902135
 H         3.375094         2.312228         1.065926
