19
Iteration:  4986
 C         0.108428        -0.732010         0.422044
 C         1.509849        -0.127155         0.269661
 C         2.031767         0.998740        -0.542857
 C         3.439646         0.557729        -0.216646
 C         4.212980        -0.064948        -1.450742
 O         3.182088        -1.059868        -1.570322
 C         2.810019        -0.918717        -0.183462
 C         3.383892         0.884487         1.335927
 O         2.040501         0.376179         1.559247
 H        -0.294691        -0.954382        -0.541424
 H         0.375044        -1.664847         0.896327
 H        -0.571227        -0.113142         1.004674
 H         1.871906         0.869484        -1.698625
 H         1.655020         2.025613        -0.210728
 H         4.366982         0.618211        -2.284642
 H         5.262817        -0.471455        -1.196658
 H         3.384416        -1.596253         0.618037
 H         4.154639         0.320611         1.811272
 H         3.421740         1.905252         1.722915
