19
Iteration:   349charge 0 multiplicity 1
 C         0.116820        -0.784849         0.754649
 C         1.480380        -0.300769         0.121112
 C         2.225975        -0.473284        -1.276921
 C         3.313981         0.373223        -0.639579
 C         4.683364        -0.446393        -0.418768
 O         4.037679        -1.293833         0.605357
 C         2.858057        -0.270982         0.784819
 C         2.532967         1.795174        -0.606931
 O         1.476479         1.212184         0.201164
 H         0.242767        -0.938899         1.770916
 H        -0.609937         0.034870         0.603968
 H        -0.185755        -1.679739         0.281687
 H         2.323538        -1.524214        -1.457603
 H         1.674158        -0.004915        -2.055585
 H         5.063132        -1.120425        -1.187684
 H         5.439660         0.140575         0.032332
 H         3.022007         0.150437         1.749902
 H         2.912158         2.588209        -0.088518
 H         2.513239         2.149645        -1.596552
