19
Iteration:  1838charge 0 multiplicity 1
 C         0.206796        -0.815073         0.511646
 C         1.502341        -0.146151         0.232228
 C         1.957094         0.403587        -1.109250
 C         3.313971         0.546430        -0.419577
 C         4.399292        -0.383150        -1.052581
 O         3.636871        -1.579135        -0.732896
 C         2.982431        -0.820994         0.347340
 C         3.005054         1.612029         0.687323
 O         1.749302         1.064655         1.103845
 H        -0.646243        -0.696938        -0.237172
 H         0.382797        -1.855797         0.817725
 H        -0.113400        -0.259876         1.410267
 H         2.044951        -0.367969        -1.916432
 H         1.382416         1.215973        -1.456390
 H         4.527118        -0.263266        -2.144904
 H         5.310119        -0.373688        -0.457921
 H         3.258559        -1.119979         1.344009
 H         3.694042         1.663796         1.561324
 H         2.733996         2.711406         0.341564
