19
Iteration:  1377charge 0 multiplicity 1
 C         0.166789        -0.819382         0.497841
 C         1.473696        -0.139284         0.170458
 C         1.857504         0.150805        -1.204991
 C         3.286327         0.451968        -0.488931
 C         4.534653        -0.409706        -0.836817
 O         3.807111        -1.567373        -0.354859
 C         2.895100        -0.692928         0.501372
 C         3.022004         1.709309         0.350247
 O         1.649669         1.206710         0.904846
 H        -0.366225        -1.161647        -0.405795
 H         0.682140        -1.744441         0.817714
 H        -0.441783        -0.533660         1.394930
 H         1.955912        -0.797113        -1.835065
 H         1.393379         0.982468        -1.692897
 H         4.704749        -0.402801        -1.967104
 H         5.415469        -0.186241        -0.164954
 H         3.074959        -0.652063         1.567700
 H         3.840456         1.762279         1.254796
 H         2.754397         2.683788        -0.071257
