19
Iteration:   994charge 0 multiplicity 1
 C         0.136476        -0.822965         0.630652
 C         1.486487        -0.205216         0.175138
 C         1.969708        -0.095752        -1.227245
 C         3.378836         0.461851        -0.486608
 C         4.571330        -0.400754        -0.692778
 O         3.824579        -1.540426        -0.053952
 C         3.014683        -0.619440         0.597759
 C         2.883779         1.811904         0.057377
 O         1.495636         1.248147         0.573373
 H        -0.413926        -1.468099        -0.087572
 H         0.268993        -1.521713         1.506710
 H        -0.589916        -0.100143         0.999223
 H         2.131792        -0.960681        -1.807221
 H         1.575908         0.804141        -1.807662
 H         4.872855        -0.661345        -1.738100
 H         5.521078        -0.043791        -0.249705
 H         3.186261        -0.348812         1.700954
 H         3.419657         2.103016         0.871270
 H         2.763024         2.506200        -0.780578
