19
Iteration:  1564charge 0 multiplicity 1
 C         0.148914        -0.787681         0.571213
 C         1.449431        -0.160184         0.179363
 C         1.888391         0.247530        -1.171539
 C         3.322636         0.461896        -0.483648
 C         4.507252        -0.345556        -0.944013
 O         3.765171        -1.555584        -0.523999
 C         2.916161        -0.727407         0.453900
 C         3.001196         1.643299         0.474317
 O         1.723090         1.082264         0.981237
 H        -0.624764        -0.096072         0.245421
 H        -0.019575        -1.798631         0.123356
 H        -0.000497        -0.927132         1.709878
 H         1.950207        -0.494591        -1.900110
 H         1.374936         1.152520        -1.573612
 H         4.889482        -0.264127        -2.013851
 H         5.298095        -0.168675        -0.173025
 H         3.204028        -0.849244         1.473336
 H         3.798227         1.646842         1.349945
 H         2.668557         2.571372         0.051578
