19
Iteration:  4974charge 0 multiplicity 1
 C         0.168480        -0.702088         0.444033
 C         1.533250        -0.114293         0.299943
 C         1.952626         1.041434        -0.634520
 C         3.375052         0.555765        -0.180500
 C         4.196584         0.031269        -1.326898
 O         3.241924        -1.116591        -1.574399
 C         2.790696        -0.864821        -0.151780
 C         3.478389         0.777097         1.229098
 O         2.015882         0.359341         1.529040
 H        -0.397886        -0.761763        -0.456811
 H         0.206100        -1.733571         0.837375
 H        -0.405446        -0.208986         1.183870
 H         1.692299         0.830608        -1.805380
 H         1.683145         2.102225        -0.294065
 H         4.240846         0.579596        -2.277130
 H         5.172563        -0.397554        -0.960995
 H         3.238558        -1.776693         0.532345
 H         4.120188         0.129074         1.815444
 H         3.535167         1.839596         1.549101
