19
Iteration:  3410charge 0 multiplicity 1
 C         0.026857        -0.654243         0.490618
 C         1.462523        -0.108667         0.258587
 C         1.855621         0.937234        -0.706948
 C         3.329219         0.540649        -0.317061
 C         4.294562         0.027580        -1.322698
 O         3.493997        -1.293181        -1.413528
 C         2.776061        -0.934068        -0.148808
 C         3.369181         0.952866         1.140844
 O         2.086312         0.439379         1.600555
 H        -0.552891        -0.549823        -0.415219
 H         0.067996        -1.760647         0.600689
 H        -0.464529        -0.119420         1.265883
 H         1.471274         0.715848        -1.797900
 H         1.534841         1.947775        -0.428189
 H         4.422251         0.645642        -2.235993
 H         5.296180        -0.155157        -0.864466
 H         3.037389        -1.616101         0.663286
 H         4.163183         0.435247         1.610190
 H         3.531286         2.151014         1.430920
