19
Iteration:   801charge 0 multiplicity 1
 C         0.151875        -0.722461         0.595632
 C         1.532866        -0.229804         0.142587
 C         2.105072        -0.226625        -1.263275
 C         3.338781         0.395271        -0.496192
 C         4.599292        -0.472182        -0.698360
 O         3.971520        -1.486081         0.142015
 C         2.914263        -0.488912         0.758924
 C         2.708274         1.812302        -0.122410
 O         1.464813         1.235388         0.523963
 H        -0.585946        -0.647132        -0.220565
 H         0.036691        -1.799676         0.930125
 H        -0.097868        -0.110745         1.460361
 H         2.127950        -1.255864        -1.641176
 H         1.517578         0.402962        -2.074719
 H         4.703041        -0.818121        -1.739553
 H         5.574818        -0.151843        -0.197490
 H         3.027283        -0.260378         1.818224
 H         3.242917         2.594081         0.496615
 H         2.428937         2.434634        -0.913701
