19
Iteration:  3224charge 0 multiplicity 1
 C         0.070575        -0.717605         0.488138
 C         1.503664        -0.130036         0.236513
 C         1.918863         0.857280        -0.795988
 C         3.375602         0.587287        -0.257680
 C         4.302962        -0.093978        -1.329566
 O         3.318360        -1.238013        -1.396620
 C         2.904412        -0.862075         0.000257
 C         3.339612         1.075863         1.204025
 O         1.983370         0.466381         1.478303
 H        -0.073976        -0.770136         1.549966
 H        -0.709768        -0.095289         0.184521
 H        -0.035088        -1.703340         0.118039
 H         1.780523         0.426789        -1.947506
 H         1.663010         1.939030        -0.824419
 H         4.496653         0.414755        -2.328281
 H         5.324244        -0.358711        -0.894699
 H         3.319698        -1.557303         0.733761
 H         4.109880         0.556363         1.735213
 H         3.459123         2.069500         1.373497
