19
Iteration:  2994charge 0 multiplicity 1
 C         0.124548        -0.725015         0.501085
 C         1.480158        -0.120463         0.232911
 C         1.914832         0.790608        -0.891131
 C         3.334081         0.585879        -0.362822
 C         4.395458        -0.130583        -1.269202
 O         3.376959        -1.246908        -1.267372
 C         2.815597        -0.836947         0.052486
 C         3.295780         1.109981         1.101698
 O         1.981538         0.530195         1.467471
 H        -0.709122         0.025138         0.627392
 H        -0.178666        -1.497026        -0.324117
 H         0.299982        -1.192458         1.510947
 H         1.787893         0.174985        -1.805491
 H         1.519921         1.685531        -0.952842
 H         4.627738         0.177120        -2.307878
 H         5.284720        -0.431758        -0.760946
 H         3.181215        -1.289185         0.977777
 H         4.078286         0.650150         1.733958
 H         3.199447         2.263118         1.274553
