19
Iteration:   115charge 0 multiplicity 1
 C         0.225463        -0.880961         0.781471
 C         1.395510        -0.135221         0.110080
 C         2.181546        -0.718864        -1.143507
 C         3.266955         0.239415        -0.575388
 C         4.591347        -0.340715        -0.268532
 O         4.026752        -1.185718         0.667089
 C         2.926984        -0.141132         0.818655
 C         2.691046         1.647867        -0.675495
 O         1.373089         1.322881        -0.141512
 H         0.444122        -1.985378         0.615240
 H         0.193515        -0.669224         1.843314
 H        -0.716605        -0.650433         0.294197
 H         2.455046        -1.783805        -1.060157
 H         1.826910        -0.426956        -2.169078
 H         5.088502        -0.865009        -1.094003
 H         5.250571         0.401792         0.213066
 H         3.055333         0.552384         1.730971
 H         3.254145         2.434797         0.053427
 H         2.556001         1.956253        -1.833827
