19
Iteration:  4712
 C         0.180266        -0.749290         0.439454
 C         1.538855        -0.125907         0.317582
 C         1.967387         1.023561        -0.557759
 C         3.405342         0.482780        -0.255108
 C         4.210607        -0.005862        -1.339847
 O         3.223706        -1.040078        -1.596739
 C         2.762804        -0.860732        -0.167902
 C         3.417895         0.817319         1.251036
 O         2.029895         0.370966         1.549097
 H        -0.094309        -1.054832        -0.609586
 H         0.178133        -1.599545         1.253020
 H        -0.553799         0.179098         0.611223
 H         1.798286         0.872842        -1.666688
 H         1.829321         1.913744        -0.074107
 H         4.334370         0.768460        -2.127343
 H         5.100214        -0.520230        -1.215221
 H         3.195537        -1.808890         0.364655
 H         4.026140         0.255476         1.951247
 H         3.480448         1.895317         1.576519
