19
Iteration:  2286charge 0 multiplicity 1
 C         0.250963        -0.793574         0.429797
 C         1.519392        -0.118689         0.284234
 C         1.868694         0.577990        -1.038927
 C         3.353595         0.560398        -0.444194
 C         4.401517        -0.306646        -1.108956
 O         3.436234        -1.423067        -1.004424
 C         2.893199        -0.808593         0.228849
 C         3.177236         1.378381         0.898655
 O         1.817223         0.850944         1.357676
 H        -0.332554        -0.255444         1.166757
 H        -0.370454        -0.815135        -0.529492
 H         0.384503        -1.834232         0.723865
 H         1.713497        -0.157885        -1.920683
 H         1.508909         1.603534        -1.245524
 H         4.603201        -0.042046        -2.199953
 H         5.386971        -0.367830        -0.614935
 H         3.304866        -1.345626         1.066262
 H         4.141750         1.243374         1.571796
 H         3.177084         2.436645         0.901305
