19
Iteration:  1060charge 0 multiplicity 1
 C         0.116799        -0.858964         0.592361
 C         1.464620        -0.251979         0.119541
 C         1.999006         0.001987        -1.326446
 C         3.336854         0.515478        -0.533651
 C         4.530646        -0.552618        -0.753080
 O         3.844186        -1.534354        -0.037108
 C         3.014818        -0.481320         0.605677
 C         2.789136         1.812940         0.127974
 O         1.612046         1.202451         0.724173
 H         0.470501        -1.539273         1.400870
 H        -0.460141         0.015174         1.017507
 H        -0.459658        -1.371467        -0.147576
 H         2.035165        -0.808222        -1.981134
 H         1.723490         0.968650        -1.884390
 H         4.934407        -1.045476        -1.701064
 H         5.531934        -0.281596        -0.255356
 H         3.347292        -0.391783         1.719541
 H         3.351974         2.153174         0.954404
 H         2.358863         2.572481        -0.532173
