19
Iteration:    96
 C         0.270796        -0.779872         0.721660
 C         1.530598        -0.258433         0.188894
 C         2.207410        -0.597511        -1.106377
 C         3.330680         0.306276        -0.547865
 C         4.692889        -0.333634        -0.389695
 O         3.989535        -1.225891         0.769827
 C         2.869910        -0.217277         0.895954
 C         2.594748         1.663299        -0.743004
 O         1.262925         1.274594        -0.200540
 H        -0.086975        -1.715960         0.182470
 H         0.456950        -1.135089         1.748893
 H        -0.494412         0.025072         0.791697
 H         2.562923        -1.628001        -1.122368
 H         1.614018        -0.341431        -2.030757
 H         5.004745        -1.064659        -1.233568
 H         5.499159         0.238480         0.050679
 H         2.892176         0.324491         1.846363
 H         3.171554         2.415133        -0.130653
 H         2.526975         1.910456        -1.873174
