19
Iteration:  4057
 C         0.151918        -0.684497         0.502035
 C         1.485407        -0.148599         0.231369
 C         2.048752         1.044678        -0.614121
 C         3.386141         0.575283        -0.171959
 C         4.190477         0.014231        -1.394485
 O         3.277871        -1.041623        -1.612954
 C         2.800881        -0.916646        -0.230338
 C         3.437608         0.841205         1.314526
 O         1.996462         0.254297         1.584705
 H        -0.097416        -1.476443        -0.143914
 H         0.069688        -1.040916         1.539636
 H        -0.676527         0.001103         0.313872
 H         1.803907         1.003200        -1.783261
 H         1.611042         2.026887        -0.303145
 H         4.312687         0.543881        -2.387559
 H         5.110408        -0.362713        -1.009344
 H         3.043880        -1.752142         0.613469
 H         4.265313         0.294578         1.851309
 H         3.307443         1.827084         1.665730
