19
Iteration:  4050charge 0 multiplicity 1
 C         0.145563        -0.680542         0.524311
 C         1.520439        -0.099895         0.260920
 C         1.998204         1.063005        -0.685735
 C         3.387366         0.513521        -0.210742
 C         4.247398         0.065406        -1.336038
 O         3.268875        -1.077438        -1.642444
 C         2.764825        -0.958579        -0.262060
 C         3.389849         0.855787         1.290776
 O         2.023242         0.245632         1.662947
 H        -0.063172        -1.478410        -0.237135
 H         0.037155        -1.036685         1.524060
 H        -0.608083         0.084611         0.310672
 H         1.863244         0.934212        -1.733490
 H         1.662835         2.049122        -0.084497
 H         4.378121         0.674940        -2.185728
 H         5.204372        -0.406828        -0.983344
 H         3.163727        -1.803810         0.219918
 H         4.145146         0.400805         1.941782
 H         3.251303         1.958787         1.473174
