19
Iteration:  3722
 C         0.063307        -0.630570         0.491763
 C         1.479720        -0.149116         0.255363
 C         1.954153         1.064307        -0.561282
 C         3.344449         0.487292        -0.235264
 C         4.261197         0.055292        -1.396212
 O         3.401124        -1.131524        -1.548064
 C         2.768993        -0.961252        -0.272506
 C         3.300071         0.878855         1.239260
 O         2.119954         0.261446         1.618765
 H        -0.654380        -0.420613        -0.390041
 H         0.070224        -1.716729         0.790137
 H        -0.378573        -0.012943         1.357916
 H         1.574421         0.979506        -1.648984
 H         1.911809         2.123489        -0.225753
 H         4.291282         0.735106        -2.219807
 H         5.256766        -0.278542        -1.107760
 H         3.205701        -1.669494         0.462231
 H         4.074441         0.443552         1.737215
 H         3.405964         1.966505         1.412095
