19
Iteration:  2765charge 0 multiplicity 1
 C         0.150507        -0.726409         0.515458
 C         1.464807        -0.153394         0.170526
 C         1.909360         0.791015        -0.983452
 C         3.350958         0.577879        -0.259421
 C         4.324086        -0.187540        -1.275079
 O         3.417633        -1.386347        -1.114057
 C         2.968600        -0.790426         0.138819
 C         3.184392         1.286996         1.068788
 O         1.973666         0.551614         1.352435
 H        -0.475922        -0.648971        -0.328103
 H         0.150732        -1.817760         0.789018
 H        -0.262873        -0.119550         1.323295
 H         1.897744         0.219741        -2.085900
 H         1.322693         1.844475        -1.016825
 H         4.357320         0.174783        -2.362877
 H         5.378726        -0.502394        -0.962391
 H         3.248868        -1.388077         1.033212
 H         3.882016         0.826253         1.746205
 H         3.163716         2.365031         1.103624
