19
Iteration:   393charge 0 multiplicity 1
 C         0.224729        -0.925338         0.745332
 C         1.489375        -0.245381         0.200569
 C         2.124735        -0.529511        -1.109506
 C         3.294220         0.368403        -0.602579
 C         4.632495        -0.358778        -0.498920
 O         3.920549        -1.341347         0.477488
 C         2.869796        -0.288988         0.827563
 C         2.764848         1.802709        -0.472191
 O         1.423059         1.337050        -0.012886
 H        -0.358955        -0.194683         1.220777
 H        -0.422817        -1.297117        -0.066704
 H         0.471265        -1.695199         1.424021
 H         2.530374        -1.502186        -1.186014
 H         1.644122        -0.226523        -2.012979
 H         5.017385        -0.915905        -1.337913
 H         5.334554         0.276671        -0.002347
 H         2.884835         0.086933         1.827754
 H         3.284250         2.280182         0.265292
 H         2.469150         2.577787        -1.083051
