19
Iteration:   605
 C         0.262617        -0.772921         0.662708
 C         1.508994        -0.220717         0.132144
 C         2.196876        -0.381105        -1.266265
 C         3.295292         0.425246        -0.558546
 C         4.526834        -0.482642        -0.536529
 O         3.942828        -1.422008         0.352972
 C         2.927212        -0.370640         0.743441
 C         2.642544         1.826924        -0.303072
 O         1.447211         1.254751         0.328637
 H        -0.491875         0.039785         0.668144
 H        -0.180528        -1.581621         0.041251
 H         0.367989        -1.165270         1.696502
 H         2.630636        -1.433753        -1.333060
 H         1.664363         0.136072        -2.146249
 H         4.747948        -0.957259        -1.491009
 H         5.456607         0.003308        -0.187423
 H         2.954182        -0.226763         1.840714
 H         3.183378         2.511847         0.396893
 H         2.259060         2.254857        -1.303095
