19
Iteration:  1927charge 0 multiplicity 1
 C         0.131813        -0.813526         0.600943
 C         1.480739        -0.200789         0.187532
 C         1.956287         0.451558        -1.138071
 C         3.323585         0.494465        -0.326634
 C         4.381973        -0.323545        -1.031603
 O         3.679702        -1.523045        -0.837395
 C         2.916064        -0.831398         0.361137
 C         3.139726         1.527327         0.686596
 O         1.714845         1.057679         1.097684
 H         0.240712        -1.916161         0.865305
 H        -0.282868        -0.253066         1.470944
 H        -0.636923        -0.651199        -0.182833
 H         2.041800        -0.107676        -1.998491
 H         1.461158         1.456975        -1.156063
 H         4.520408        -0.195524        -2.133982
 H         5.384425        -0.353717        -0.542685
 H         3.402166        -1.268506         1.194988
 H         3.828908         1.686594         1.560243
 H         2.920040         2.579575         0.239901
