19
Iteration:  1926charge 0 multiplicity 1
 C         0.123224        -0.809588         0.602850
 C         1.476735        -0.204300         0.185879
 C         1.964519         0.447269        -1.128607
 C         3.314472         0.491507        -0.336373
 C         4.380404        -0.322704        -1.028164
 O         3.674451        -1.515930        -0.836811
 C         2.927173        -0.820151         0.358924
 C         3.145761         1.521299         0.690418
 O         1.717856         1.057189         1.095067
 H         0.245747        -1.915808         0.840148
 H        -0.300628        -0.282929         1.463854
 H        -0.628516        -0.641038        -0.161553
 H         2.041979        -0.146393        -2.005953
 H         1.467491         1.441455        -1.181767
 H         4.546750        -0.209987        -2.152249
 H         5.395465        -0.340220        -0.543827
 H         3.416680        -1.258131         1.221810
 H         3.790132         1.655740         1.536752
 H         2.915261         2.578527         0.272487
