19
Iteration:  3103charge 0 multiplicity 1
 C         0.061404        -0.692147         0.574147
 C         1.444343        -0.129168         0.259851
 C         1.873843         0.919077        -0.750134
 C         3.358024         0.525041        -0.312829
 C         4.367264        -0.087532        -1.282511
 O         3.508455        -1.393187        -1.365209
 C         2.834585        -0.865191        -0.096080
 C         3.265941         1.131883         1.087613
 O         2.002016         0.520674         1.476195
 H        -0.161773        -1.468223        -0.107698
 H         0.089040        -1.097181         1.593838
 H        -0.697155         0.005147         0.453693
 H         1.731646         0.568099        -1.862990
 H         1.555503         1.948513        -0.680509
 H         4.666417         0.347257        -2.252411
 H         5.270439        -0.342263        -0.760959
 H         2.998728        -1.553720         0.719502
 H         3.918533         0.833478         1.909744
 H         3.155289         2.266326         1.004925
