19
Iteration:  1630charge 0 multiplicity 1
 C         0.098666        -0.943558         0.516818
 C         1.489901        -0.221080         0.317558
 C         1.937304         0.307634        -1.103908
 C         3.354474         0.514888        -0.334184
 C         4.439911        -0.299152        -1.033816
 O         3.709244        -1.578136        -0.566222
 C         2.930495        -0.801590         0.387038
 C         3.021392         1.646267         0.511241
 O         1.732818         1.240737         0.935473
 H        -0.011443        -1.575082        -0.383846
 H         0.020534        -1.487508         1.497440
 H        -0.741894        -0.181335         0.541357
 H         1.979840        -0.435236        -1.874817
 H         1.454484         1.203616        -1.472224
 H         4.681137        -0.340480        -2.115533
 H         5.319747        -0.314874        -0.383942
 H         3.229022        -1.135772         1.353256
 H         3.911564         1.809339         1.369103
 H         2.974251         2.603131         0.000127
