19
Iteration:  4243
 C         0.108002        -0.726709         0.329661
 C         1.555142        -0.183010         0.333059
 C         1.982939         1.079659        -0.663670
 C         3.469842         0.528311        -0.149196
 C         4.194336        -0.063927        -1.423588
 O         3.122508        -1.042214        -1.611342
 C         2.832449        -0.890176        -0.138318
 C         3.398511         0.959599         1.378766
 O         2.115076         0.233923         1.621114
 H         0.067421        -1.399268        -0.564820
 H        -0.087315        -1.256196         1.352756
 H        -0.551958         0.204494         0.051410
 H         1.763891         0.803157        -1.671040
 H         1.755837         2.090315        -0.390482
 H         4.242218         0.708215        -2.275742
 H         5.202197        -0.556080        -1.290683
 H         3.178902        -1.638643         0.369125
 H         4.104341         0.668704         2.235505
 H         3.181144         2.033676         1.583503
