19
Iteration:  4883
 C         0.031443        -0.670267         0.396358
 C         1.516649        -0.147669         0.319198
 C         1.989807         0.966476        -0.638006
 C         3.394540         0.515349        -0.178865
 C         4.233989         0.038233        -1.357322
 O         3.192366        -1.042523        -1.572357
 C         2.820047        -0.942540        -0.187673
 C         3.456543         0.902543         1.305633
 O         2.102115         0.283992         1.579645
 H         0.104033        -1.288670        -0.484638
 H        -0.092441        -1.313601         1.232472
 H        -0.652404         0.124049         0.509032
 H         1.847787         0.810477        -1.834295
 H         1.688823         2.058282        -0.506053
 H         4.063700         0.751288        -2.188201
 H         5.249522        -0.297361        -1.180421
 H         3.262522        -1.839110         0.509658
 H         4.216450         0.357043         1.964272
 H         3.435724         2.002072         1.505206
