19
Iteration:  3697
 C         0.139903        -0.572838         0.444431
 C         1.578003        -0.217386         0.271860
 C         1.897005         0.954102        -0.692399
 C         3.407567         0.575778        -0.147656
 C         4.197739        -0.007057        -1.368927
 O         3.260873        -1.066386        -1.559266
 C         2.823992        -0.874502        -0.161247
 C         3.357668         0.975954         1.271326
 O         2.102014         0.129376         1.572351
 H        -0.403533         0.178703        -0.247556
 H        -0.261383        -1.762766         0.262287
 H        -0.238586        -0.179567         1.535642
 H         1.875072         0.708641        -1.662340
 H         1.557407         1.992219        -0.517187
 H         4.234144         0.702634        -2.192083
 H         5.195856        -0.409282        -1.062684
 H         3.144621        -1.662032         0.529357
 H         4.178938         0.572808         1.869936
 H         3.245589         2.007504         1.419321
