19
Iteration:  1312
 C         0.239547        -0.809057         0.612861
 C         1.481921        -0.208060         0.167268
 C         2.086582         0.209623        -1.269053
 C         3.349431         0.485443        -0.392524
 C         4.454556        -0.402430        -0.841245
 O         3.825675        -1.677921        -0.305549
 C         2.844453        -0.667652         0.505380
 C         2.891092         1.753260         0.285618
 O         1.553463         1.206883         0.843445
 H        -0.261949        -0.272417         1.379303
 H        -0.355886        -0.877629        -0.279821
 H         0.330159        -1.784165         1.061981
 H         2.129775        -0.792753        -1.849142
 H         1.694291         1.013765        -1.838664
 H         4.501248        -0.365428        -1.973640
 H         5.428225        -0.181426        -0.465212
 H         3.171842        -0.827383         1.525836
 H         3.675168         1.976827         1.025975
 H         2.604279         2.498333        -0.439480
