19
Iteration:  2416
 C         0.184334        -0.829848         0.554128
 C         1.454392        -0.069036         0.201744
 C         1.953929         0.829590        -0.946458
 C         3.439880         0.456166        -0.263745
 C         4.330062        -0.274358        -1.261689
 O         3.620943        -1.533078        -1.036621
 C         2.845405        -0.952908         0.116887
 C         3.111733         1.401183         0.923922
 O         1.804442         0.882605         1.313094
 H        -0.466313        -0.890003        -0.376890
 H         0.379703        -1.899433         1.056659
 H        -0.292318        -0.082563         1.279592
 H         1.741710         0.300024        -1.877545
 H         1.527503         1.766964        -0.909303
 H         4.382740        -0.049391        -2.386693
 H         5.387052        -0.445496        -0.860578
 H         3.105584        -1.477980         1.008447
 H         3.921683         1.242791         1.708956
 H         2.827539         2.391834         0.597822
