19
Iteration:  3828
 C         0.137922        -0.620997         0.371485
 C         1.542785        -0.137697         0.302288
 C         1.953161         0.997750        -0.610709
 C         3.356894         0.560593        -0.198095
 C         4.175789         0.051631        -1.386116
 O         3.209029        -1.048484        -1.546789
 C         2.818372        -0.913920        -0.167264
 C         3.428239         0.822122         1.250083
 O         2.094774         0.205946         1.604534
 H         0.169406        -1.639554         0.077431
 H        -0.141870        -0.579431         1.479385
 H        -0.599500         0.075288        -0.051419
 H         1.671623         0.687967        -1.647087
 H         1.702171         2.104015        -0.460112
 H         4.233562         0.761607        -2.217852
 H         5.201265        -0.205530        -0.941189
 H         3.288286        -1.681665         0.435731
 H         4.305031         0.140997         1.683532
 H         3.501547         1.874152         1.531275
