19
Iteration:  1089charge 0 multiplicity 1
 C         0.229267        -0.768292         0.539774
 C         1.457862        -0.139233         0.242050
 C         1.970508        -0.042554        -1.208049
 C         3.289269         0.421941        -0.494699
 C         4.484420        -0.366947        -0.792277
 O         3.933920        -1.534622        -0.092333
 C         2.835485        -0.613231         0.614789
 C         2.878686         1.682831         0.120983
 O         1.610018         1.234221         0.660588
 H         0.005485        -0.917863         1.594117
 H        -0.602754        -0.240763         0.116967
 H         0.312982        -1.770199         0.054914
 H         2.048338        -1.017790        -1.727131
 H         1.692889         0.787360        -1.865411
 H         4.737454        -0.807297        -1.787628
 H         5.378157         0.015663        -0.302109
 H         3.143708        -0.718357         1.636940
 H         3.480798         2.137113         1.067314
 H         2.512222         2.434953        -0.577793
