19
Iteration:  4896
 C         0.116862        -0.599853         0.424567
 C         1.542738        -0.211385         0.252056
 C         1.942838         0.956391        -0.643174
 C         3.421797         0.505879        -0.112983
 C         4.174241         0.052678        -1.388597
 O         3.260789        -1.079139        -1.632879
 C         2.790379        -0.923759        -0.196628
 C         3.438841         0.963021         1.326102
 O         2.069588         0.252153         1.629904
 H        -0.470331        -0.876086        -0.421622
 H        -0.073946        -1.339290         1.212663
 H        -0.414396         0.266693         0.579675
 H         1.918984         0.480593        -1.801982
 H         1.452180         1.955297        -0.406550
 H         4.408880         0.708891        -2.286714
 H         5.170866        -0.495334        -1.169029
 H         3.221052        -1.767963         0.432240
 H         4.214845         0.522972         1.949819
 H         3.308381         2.031934         1.577379
