19
Iteration:  1819
 C         0.283941        -0.802542         0.584791
 C         1.545086        -0.192646         0.246556
 C         1.944567         0.288987        -1.244592
 C         3.310493         0.571250        -0.423465
 C         4.419545        -0.248935        -1.004848
 O         3.508938        -1.521580        -0.676107
 C         2.920052        -0.708955         0.362977
 C         3.106329         1.527386         0.656149
 O         1.714857         1.012242         1.070400
 H        -0.474277        -0.192248        -0.012137
 H         0.344506        -1.834705         0.186827
 H        -0.167657        -0.750421         1.594584
 H         1.994248        -0.520934        -1.906564
 H         1.437601         1.183115        -1.719294
 H         4.632551        -0.243462        -2.047494
 H         5.239415        -0.372320        -0.327341
 H         3.391865        -0.891915         1.312501
 H         3.750563         1.173974         1.544398
 H         3.060295         2.569724         0.499116
