19
Iteration:  4568
 C         0.095226        -0.705191         0.457175
 C         1.484901        -0.169323         0.282797
 C         2.018901         1.036299        -0.574022
 C         3.423386         0.527550        -0.169504
 C         4.287239        -0.093979        -1.362976
 O         3.193889        -1.005338        -1.671031
 C         2.776748        -0.958316        -0.145602
 C         3.370492         0.975535         1.218892
 O         2.073934         0.290701         1.589712
 H        -0.456197        -0.480749        -0.556570
 H         0.234235        -1.845443         0.650569
 H        -0.331391        -0.174286         1.334808
 H         1.760847         1.010607        -1.565666
 H         1.810317         1.931019        -0.034515
 H         4.552948         0.598699        -2.199020
 H         5.235148        -0.542165        -1.014016
 H         3.276592        -1.894977         0.523731
 H         4.084565         0.541892         1.895539
 H         3.214477         2.113579         1.333381
