19
Iteration:   516
 C         0.167789        -0.716264         0.704669
 C         1.532598        -0.294007         0.160540
 C         2.169372        -0.390916        -1.287523
 C         3.285598         0.410761        -0.616556
 C         4.654505        -0.424747        -0.502660
 O         3.893565        -1.336585         0.453810
 C         2.985848        -0.324778         0.725611
 C         2.660444         1.747064        -0.359820
 O         1.396789         1.163541         0.268843
 H         0.241371        -1.704042         1.220416
 H        -0.168794         0.067038         1.303147
 H        -0.547115        -0.884772        -0.123782
 H         2.628223        -1.405855        -1.427154
 H         1.627054         0.126075        -2.093331
 H         4.946402        -0.987043        -1.357829
 H         5.543141         0.061104        -0.110038
 H         3.220340         0.103286         1.693067
 H         3.252461         2.332913         0.318153
 H         2.289627         2.167308        -1.300172
