19
Iteration:  3337charge 0 multiplicity 1
 C         0.102085        -0.804229         0.401442
 C         1.467191        -0.159832         0.290448
 C         1.998072         0.873276        -0.698285
 C         3.399352         0.499432        -0.227674
 C         4.303307        -0.035327        -1.319352
 O         3.278143        -1.179914        -1.436763
 C         2.778624        -0.950858        -0.006811
 C         3.392226         1.083451         1.147584
 O         2.009786         0.579937         1.487527
 H        -0.727175        -0.167336         0.829039
 H        -0.159189        -1.243494        -0.582850
 H         0.383113        -1.564229         1.253176
 H         1.742847         0.706388        -1.784558
 H         1.689680         1.897066        -0.316419
 H         4.291358         0.476582        -2.276441
 H         5.369815        -0.344411        -1.194700
 H         3.119959        -1.759104         0.681349
 H         4.185843         0.626458         1.854234
 H         3.357219         2.081214         1.231689
