19
Iteration:  4618
 C         0.027418        -0.583242         0.504075
 C         1.493583        -0.150674         0.299970
 C         1.890818         1.008009        -0.662380
 C         3.352059         0.573823        -0.200834
 C         4.227922         0.109701        -1.446194
 O         3.383722        -1.108601        -1.502694
 C         2.815516        -0.926478        -0.208734
 C         3.487806         0.745540         1.258831
 O         2.014803         0.269668         1.581178
 H        -0.399813        -0.885039        -0.420058
 H         0.127488        -1.387378         1.156847
 H        -0.538239         0.195954         0.937743
 H         1.683920         0.630575        -1.685304
 H         1.718128         2.107888        -0.331552
 H         4.318840         0.684867        -2.369038
 H         5.287834        -0.230470        -1.177036
 H         3.096861        -1.614762         0.453302
 H         4.253535         0.021873         1.656913
 H         3.685970         1.752177         1.540546
