19
Iteration:  3842charge 0 multiplicity 1
 C         0.061487        -0.616535         0.507439
 C         1.514003        -0.145004         0.281150
 C         1.910766         0.970468        -0.618451
 C         3.406365         0.641498        -0.237853
 C         4.204173         0.073962        -1.404019
 O         3.313699        -1.065384        -1.536151
 C         2.801885        -0.831796        -0.197731
 C         3.455437         0.705153         1.289003
 O         2.097396         0.256900         1.554182
 H        -0.241260        -1.656855        -0.042330
 H        -0.263422        -0.695243         1.612936
 H        -0.584804        -0.003277        -0.249901
 H         1.834080         0.761203        -1.560740
 H         1.392051         1.838619        -0.439653
 H         4.259648         0.525862        -2.386829
 H         5.208415        -0.424264        -1.278120
 H         3.142996        -1.552818         0.541626
 H         4.137145         0.063687         1.826843
 H         3.447185         1.684428         1.806734
