19
Iteration:  2375
 C         0.075358        -0.690054         0.461140
 C         1.507470        -0.230535         0.183030
 C         1.863762         0.522174        -0.998750
 C         3.288464         0.625002        -0.416136
 C         4.430650        -0.245489        -1.169808
 O         3.461281        -1.329630        -0.995689
 C         2.899920        -0.818052         0.226414
 C         3.216008         1.323276         0.910623
 O         1.962202         0.757429         1.379625
 H        -0.545866        -0.314373        -0.295067
 H         0.012966        -1.815184         0.470374
 H        -0.304117        -0.292862         1.417649
 H         2.111078        -0.265406        -1.824545
 H         1.362523         1.436359        -1.365882
 H         4.618483        -0.120927        -2.283358
 H         5.414358        -0.305025        -0.652336
 H         3.143477        -1.306355         1.158432
 H         4.084119         1.095773         1.731779
 H         3.102091         2.389674         0.706196
