19
Iteration:  2227charge 0 multiplicity 1
 C         0.217199        -0.655315         0.557946
 C         1.509000        -0.126532         0.165365
 C         1.968061         0.587053        -1.110136
 C         3.384447         0.567381        -0.323229
 C         4.352239        -0.299201        -1.224418
 O         3.542699        -1.483686        -0.909217
 C         2.893624        -0.774184         0.168715
 C         3.062942         1.381738         0.965385
 O         1.811138         0.728089         1.278644
 H         0.240362        -0.989194         1.687821
 H        -0.594877         0.023846         0.305640
 H         0.069104        -1.629328        -0.001402
 H         1.927468        -0.063300        -1.934955
 H         1.662312         1.574851        -1.402977
 H         4.294638        -0.009615        -2.275999
 H         5.423211        -0.294365        -0.802477
 H         3.337600        -1.196540         1.029060
 H         3.771527         1.246060         1.844324
 H         2.711608         2.431296         0.807376
