19
Iteration:  4671charge 0 multiplicity 1
 C         0.131453        -0.703357         0.438859
 C         1.539265        -0.139339         0.327352
 C         2.002784         1.010146        -0.643492
 C         3.461768         0.505965        -0.123365
 C         4.252658        -0.030059        -1.398587
 O         3.176146        -1.000998        -1.609309
 C         2.733423        -0.846758        -0.180290
 C         3.366150         0.888720         1.262880
 O         2.085707         0.225913         1.585490
 H        -0.037184        -1.436061        -0.290013
 H         0.008442        -1.147816         1.384596
 H        -0.616310         0.078074         0.224044
 H         1.735468         0.774222        -1.746647
 H         1.752932         2.061827        -0.320431
 H         4.288907         0.675831        -2.264168
 H         5.289695        -0.491703        -1.105244
 H         3.093861        -1.696494         0.556719
 H         4.242237         0.519386         1.893152
 H         3.353526         2.013601         1.402392
