19
Iteration:   544charge 0 multiplicity 1
 C         0.252595        -0.888329         0.712540
 C         1.461292        -0.217479         0.071821
 C         2.082297        -0.397191        -1.294688
 C         3.280150         0.373816        -0.573170
 C         4.639594        -0.387821        -0.492472
 O         3.915703        -1.412547         0.478800
 C         2.888980        -0.352172         0.703426
 C         2.722935         1.773067        -0.348787
 O         1.458584         1.347614         0.272367
 H         0.561676        -1.215417         1.697803
 H        -0.591396        -0.100550         0.765290
 H        -0.073984        -1.776477         0.165245
 H         2.363873        -1.398088        -1.456705
 H         1.610196         0.114444        -2.141919
 H         4.891146        -0.926807        -1.477870
 H         5.550941         0.133160        -0.107704
 H         3.052476        -0.020425         1.755475
 H         3.420863         2.404287         0.304363
 H         2.443566         2.175807        -1.290877
