19
Iteration:  4076
 C         0.126021        -0.740026         0.419334
 C         1.514203        -0.125599         0.228292
 C         1.897887         1.091408        -0.628890
 C         3.460360         0.534604        -0.205028
 C         4.255328         0.067113        -1.412091
 O         3.186834        -1.091266        -1.479379
 C         2.849124        -0.828582        -0.154912
 C         3.409327         0.724294         1.314001
 O         2.082304         0.320993         1.538421
 H        -0.223250        -1.571634        -0.385235
 H         0.059143        -1.144096         1.516738
 H        -0.653712         0.077555         0.273120
 H         1.731557         0.970594        -1.724024
 H         1.577889         1.930788        -0.214063
 H         4.074320         0.811968        -2.285181
 H         5.286366        -0.415783        -1.381256
 H         3.276998        -1.612848         0.495486
 H         3.995385         0.000772         1.886295
 H         3.576326         1.775606         1.698750
