19
Iteration:  4879
 C         0.057839        -0.692979         0.394067
 C         1.519320        -0.118681         0.326523
 C         1.993244         0.985180        -0.653915
 C         3.401249         0.512334        -0.193348
 C         4.231928         0.029862        -1.385087
 O         3.188647        -1.031391        -1.544882
 C         2.821648        -0.941317        -0.163004
 C         3.423349         0.851865         1.269541
 O         2.109585         0.304190         1.587641
 H         0.022282        -1.355615        -0.535529
 H        -0.041801        -1.360825         1.283477
 H        -0.833126         0.114457         0.334679
 H         1.796378         0.798868        -1.588585
 H         1.814291         1.993844        -0.334622
 H         4.172917         0.794415        -2.133237
 H         5.257070        -0.187317        -1.111693
 H         3.168110        -1.769721         0.475245
 H         4.177421         0.331446         1.889300
 H         3.464413         1.934918         1.454079
