19
Iteration:  3129
 C         0.110488        -0.640693         0.582225
 C         1.481573        -0.203652         0.270531
 C         1.954671         0.817960        -0.829864
 C         3.367887         0.473732        -0.229397
 C         4.312967        -0.075991        -1.233594
 O         3.425385        -1.248618        -1.405956
 C         2.849413        -0.934078        -0.072212
 C         3.273295         1.133574         1.079723
 O         1.965733         0.561980         1.487662
 H        -0.025461        -1.754344         0.242081
 H        -0.153622        -0.545027         1.650168
 H        -0.585941        -0.143549        -0.252213
 H         1.828010         0.508841        -1.772430
 H         1.694843         1.826626        -0.809542
 H         4.330567         0.433073        -2.180705
 H         5.349925        -0.290340        -0.992360
 H         3.098705        -1.745832         0.645465
 H         4.019426         0.718921         1.841398
 H         3.138232         2.302548         1.069125
