19
Iteration:  1107charge 0 multiplicity 1
 C         0.084176        -0.808035         0.558206
 C         1.499522        -0.203776         0.169058
 C         2.002126        -0.094187        -1.254358
 C         3.288943         0.476133        -0.473245
 C         4.528554        -0.335163        -0.799815
 O         3.833350        -1.548546        -0.135691
 C         2.995680        -0.642439         0.644997
 C         2.923394         1.743032         0.169169
 O         1.567795         1.276566         0.698777
 H        -0.190442        -0.318963         1.505747
 H        -0.614372        -0.633886        -0.278227
 H         0.206951        -1.929941         0.689919
 H         2.259001        -1.153062        -1.645270
 H         1.332850         0.441197        -1.880699
 H         4.768785        -0.445302        -1.845298
 H         5.510172        -0.152718        -0.311698
 H         3.203011        -0.337016         1.689028
 H         3.552307         1.824167         0.976671
 H         2.839705         2.621321        -0.505969
