19
Iteration:  1546charge 0 multiplicity 1
 C         0.185554        -0.784804         0.564667
 C         1.558725        -0.168167         0.304788
 C         1.936363         0.278114        -1.193285
 C         3.248109         0.425299        -0.351361
 C         4.405038        -0.275835        -0.868432
 O         3.768249        -1.583384        -0.541461
 C         2.934934        -0.846973         0.385686
 C         3.011686         1.624165         0.396867
 O         1.662683         1.209207         0.922124
 H        -0.683095        -0.121571         0.728035
 H         0.057299        -1.337812        -0.355651
 H         0.293694        -1.428206         1.384049
 H         2.113154        -0.627094        -1.932976
 H         1.403767         1.173907        -1.493582
 H         4.599964        -0.405906        -1.913604
 H         5.398723        -0.248224        -0.370784
 H         3.303586        -1.071560         1.454506
 H         3.564220         1.581830         1.260544
 H         2.844131         2.637597        -0.150785
