19
Iteration:  3803
 C         0.090341        -0.736653         0.380885
 C         1.516623        -0.165789         0.283950
 C         2.008799         1.037393        -0.494027
 C         3.473093         0.491441        -0.142169
 C         4.227995        -0.043575        -1.435210
 O         3.195500        -1.035562        -1.642875
 C         2.701878        -0.939807        -0.246918
 C         3.365818         0.959986         1.308762
 O         2.167548         0.302267         1.655850
 H         0.158352        -1.661141        -0.064720
 H        -0.295307        -0.832263         1.340499
 H        -0.547563        -0.095792        -0.139490
 H         1.824532         1.015982        -1.724086
 H         1.624950         2.043398        -0.086628
 H         4.301795         0.706605        -2.265041
 H         5.201461        -0.428034        -1.172878
 H         3.046213        -1.843852         0.319713
 H         4.169345         0.712551         2.082739
 H         3.248279         2.051028         1.194897
