19
Iteration:  1137
 C         0.210444        -0.743101         0.609406
 C         1.543586        -0.163990         0.148714
 C         2.029027         0.042553        -1.282272
 C         3.335487         0.499100        -0.514189
 C         4.552489        -0.493253        -0.762752
 O         3.834424        -1.528986        -0.174461
 C         2.965762        -0.647577         0.637309
 C         2.741883         1.742622         0.165182
 O         1.554227         1.143983         0.709706
 H        -0.488914         0.086166         0.876695
 H        -0.357531        -1.287435        -0.192429
 H         0.333969        -1.401351         1.470900
 H         2.048960        -0.896772        -1.855888
 H         1.392143         0.821722        -1.785497
 H         4.867949        -0.770587        -1.849631
 H         5.481951        -0.336597        -0.071815
 H         3.221290        -0.375949         1.726135
 H         3.371781         1.953288         1.063331
 H         2.524007         2.716370        -0.395340
