19
Iteration:   339
 C         0.115532        -0.803709         0.762108
 C         1.483917        -0.325620         0.085163
 C         2.168222        -0.507583        -1.300529
 C         3.331933         0.401802        -0.568900
 C         4.585840        -0.442055        -0.414221
 O         4.051025        -1.245123         0.635209
 C         2.888857        -0.322300         0.781947
 C         2.600618         1.751982        -0.619617
 O         1.528650         1.278955         0.194781
 H         0.249058        -1.288107         1.684167
 H        -0.600650         0.010618         0.880542
 H        -0.345561        -1.516278         0.116598
 H         2.572845        -1.460724        -1.594033
 H         1.716448        -0.047800        -2.156536
 H         4.928297        -0.955200        -1.283226
 H         5.405363         0.138336        -0.018422
 H         2.819615         0.184736         1.694172
 H         2.965233         2.561405        -0.161595
 H         2.080783         1.998981        -1.571555
