19
Iteration:   912charge 0 multiplicity 1
 C         0.199837        -0.787137         0.605686
 C         1.554051        -0.203071         0.199628
 C         1.950889        -0.198079        -1.227971
 C         3.294910         0.447457        -0.456208
 C         4.528524        -0.430862        -0.728450
 O         3.858837        -1.556315         0.008346
 C         2.980280        -0.522387         0.712396
 C         2.846771         1.802449         0.018218
 O         1.510790         1.274483         0.478111
 H        -0.288571        -0.387165         1.496866
 H        -0.438817        -0.696123        -0.316027
 H         0.436652        -1.834529         0.712259
 H         2.410372        -1.030392        -1.782056
 H         1.365504         0.425222        -1.957780
 H         4.863646        -0.599821        -1.764802
 H         5.324211        -0.067196        -0.028985
 H         3.192362        -0.276050         1.736560
 H         3.412205         2.271979         0.894514
 H         2.699029         2.590327        -0.682234
