19
Iteration:  4468
 C         0.054686        -0.521245         0.455874
 C         1.532983        -0.189066         0.305082
 C         1.970688         0.941647        -0.666623
 C         3.361881         0.470069        -0.188811
 C         4.283048         0.109913        -1.335648
 O         3.199274        -1.065127        -1.628849
 C         2.809365        -0.940828        -0.224320
 C         3.397711         0.926503         1.239492
 O         2.144351         0.164031         1.649243
 H        -0.061032        -1.420378        -0.262680
 H        -0.139636        -0.848587         1.509090
 H        -0.543629         0.354190         0.224279
 H         1.832925         0.722259        -1.557776
 H         1.545278         1.890002        -0.522707
 H         4.248759         0.921599        -2.078663
 H         5.300737        -0.322605        -1.128862
 H         3.249610        -1.703114         0.540288
 H         4.159782         0.481539         1.875345
 H         3.139967         1.945447         1.605766
