19
Iteration:  3310
 C         0.196555        -0.701508         0.425677
 C         1.515833        -0.088292         0.257745
 C         1.879028         0.950166        -0.818034
 C         3.333209         0.682053        -0.293327
 C         4.174756        -0.117654        -1.291249
 O         3.357567        -1.309084        -1.369747
 C         2.879421        -0.858141        -0.079547
 C         3.381839         0.975816         1.228324
 O         1.978585         0.455661         1.562904
 H        -0.270228        -0.341637         1.318115
 H        -0.311784        -0.710386        -0.556665
 H         0.402203        -1.680506         0.624395
 H         1.778269         0.421334        -1.870722
 H         1.395960         1.921840        -0.720333
 H         4.315471         0.212599        -2.378376
 H         5.245824        -0.324444        -0.975406
 H         3.345898        -1.412935         0.735847
 H         4.148924         0.474304         1.712130
 H         3.393342         2.161911         1.425211
