19
Iteration:  2969charge 0 multiplicity 1
 C         0.137210        -0.711564         0.539270
 C         1.506957        -0.126270         0.254039
 C         1.867241         0.866853        -0.865943
 C         3.277366         0.521982        -0.307337
 C         4.295200        -0.122469        -1.217978
 O         3.545040        -1.369783        -1.361177
 C         2.841838        -0.987768        -0.009544
 C         3.294339         1.169328         1.102828
 O         1.940889         0.642691         1.451395
 H        -0.402051        -0.059841         1.195037
 H        -0.332783        -0.750269        -0.430990
 H         0.115646        -1.599566         1.073112
 H         1.730555         0.455839        -1.895337
 H         1.454684         1.839897        -0.703789
 H         4.502980         0.234024        -2.225219
 H         5.244937        -0.284802        -0.713101
 H         3.189031        -1.486744         0.912016
 H         4.065075         0.835407         1.836018
 H         3.172436         2.301514         1.116998
