19
Iteration:   757
 C         0.233659        -0.842421         0.630296
 C         1.458510        -0.155355         0.136183
 C         1.980187        -0.373149        -1.257652
 C         3.292913         0.432508        -0.602720
 C         4.602675        -0.463667        -0.546195
 O         3.923224        -1.448266         0.190760
 C         2.887894        -0.387525         0.639311
 C         2.812368         1.753022        -0.132009
 O         1.497728         1.323562         0.474864
 H        -0.429715        -0.158500         1.191583
 H        -0.465551        -1.147118        -0.192690
 H         0.558280        -1.683861         1.263131
 H         2.287019        -1.341188        -1.711987
 H         1.426943         0.214482        -2.137463
 H         4.890225        -0.868310        -1.533926
 H         5.442433         0.091994         0.023089
 H         3.141390        -0.231243         1.683128
 H         3.602858         2.089097         0.648021
 H         2.745381         2.664058        -0.717038
