19
Iteration:   482
 C         0.146075        -0.804765         0.677111
 C         1.437814        -0.156394         0.216500
 C         2.090181        -0.457303        -1.111489
 C         3.281336         0.382660        -0.551530
 C         4.626777        -0.338001        -0.510030
 O         4.036128        -1.343856         0.371871
 C         2.940400        -0.435170         0.830437
 C         2.763060         1.702062        -0.406198
 O         1.388557         1.303260         0.107004
 H         0.017618        -1.728665         0.106133
 H         0.048686        -1.119385         1.652613
 H        -0.666646        -0.154579         0.403248
 H         2.462193        -1.464393        -1.275334
 H         1.639200        -0.183354        -2.049754
 H         4.941732        -1.004746        -1.263151
 H         5.405382         0.289600        -0.109029
 H         3.210724        -0.132287         1.815412
 H         3.342942         2.355095         0.176469
 H         2.530406         2.275030        -1.284186
