19
Iteration:  4529
 C         0.196185        -0.711825         0.428133
 C         1.506742        -0.088382         0.259325
 C         1.946779         1.074638        -0.631750
 C         3.389347         0.594557        -0.239255
 C         4.200400         0.002561        -1.365810
 O         3.259554        -1.056484        -1.552030
 C         2.705758        -0.903276        -0.114024
 C         3.459741         0.767488         1.280435
 O         2.067197         0.318771         1.578323
 H        -0.284124        -1.031847        -0.453845
 H         0.371470        -1.591763         0.980774
 H        -0.667117        -0.165791         0.852793
 H         1.936621         0.598699        -1.813737
 H         1.530413         2.117809        -0.347397
 H         4.277361         0.637716        -2.275650
 H         5.232563        -0.385544        -1.167229
 H         2.874946        -1.673802         0.541601
 H         4.178898        -0.051451         1.579350
 H         3.614047         1.702540         1.832376
