19
Iteration:   188charge 0 multiplicity 1
 C         0.170252        -0.812841         0.700664
 C         1.474722        -0.224646         0.195395
 C         2.195491        -0.699879        -1.128991
 C         3.310958         0.354969        -0.492644
 C         4.631337        -0.437938        -0.418668
 O         4.094336        -1.167773         0.618560
 C         2.857416        -0.243946         0.879709
 C         2.639874         1.711064        -0.639586
 O         1.340533         1.339393        -0.090014
 H        -0.223650        -0.182055         1.490234
 H        -0.555933        -0.876189        -0.160505
 H         0.377845        -1.834575         1.058875
 H         2.544791        -1.728643        -1.011610
 H         1.772425        -0.513126        -2.097319
 H         4.773678        -1.041001        -1.288363
 H         5.583599         0.122749        -0.131523
 H         3.056397         0.215572         1.816841
 H         3.061618         2.471787        -0.109506
 H         2.446470         2.064228        -1.600181
