19
Iteration:  1149charge 0 multiplicity 1
 C         0.262048        -0.768881         0.582510
 C         1.501398        -0.196404         0.107207
 C         1.970278         0.098797        -1.315163
 C         3.321167         0.449093        -0.462010
 C         4.539327        -0.388301        -0.738392
 O         3.793037        -1.574688        -0.124738
 C         2.920070        -0.665264         0.604706
 C         2.856337         1.718987         0.143727
 O         1.548683         1.181206         0.761389
 H        -0.536695        -0.003794         0.652602
 H         0.009263        -1.745248         0.101237
 H         0.549798        -0.991320         1.640163
 H         2.202003        -0.802013        -1.978746
 H         1.491456         0.900758        -1.887487
 H         4.704405        -0.652994        -1.835430
 H         5.584723        -0.117717        -0.259709
 H         3.276328        -0.750824         1.695198
 H         3.456382         2.218508         0.878450
 H         2.498847         2.448995        -0.690320
