19
Iteration:  4292charge 0 multiplicity 1
 C         0.112998        -0.681361         0.540883
 C         1.453039        -0.106411         0.230147
 C         1.913172         1.068392        -0.667758
 C         3.434947         0.545995        -0.159569
 C         4.234077        -0.014003        -1.367070
 O         3.329239        -1.046809        -1.588874
 C         2.845639        -0.845992        -0.208565
 C         3.391596         0.713326         1.265533
 O         2.025151         0.325943         1.576618
 H        -0.152872        -1.300149        -0.304254
 H         0.240618        -1.191824         1.424919
 H        -0.569661         0.084777         0.565608
 H         1.690912         0.804709        -1.802315
 H         1.263745         1.990311        -0.300993
 H         4.258190         0.594447        -2.236410
 H         5.258579        -0.421921        -1.186331
 H         3.270921        -1.680863         0.449362
 H         4.081693         0.046609         1.730289
 H         3.516393         1.628155         1.803879
