19
Iteration:  1919charge 0 multiplicity 1
 C         0.086936        -0.783807         0.606683
 C         1.465120        -0.216473         0.209080
 C         1.996697         0.404378        -1.074229
 C         3.296094         0.485149        -0.408607
 C         4.414072        -0.298181        -1.050271
 O         3.615209        -1.482889        -0.806894
 C         2.990349        -0.774520         0.333858
 C         3.116837         1.501507         0.692311
 O         1.750282         1.035227         1.077181
 H         0.221192        -1.868704         0.626496
 H        -0.348164        -0.439749         1.595036
 H        -0.674767        -0.602954        -0.225953
 H         1.995545        -0.298593        -1.897357
 H         1.524063         1.328024        -1.492420
 H         4.676571        -0.203923        -2.064998
 H         5.352780        -0.237267        -0.500990
 H         3.353218        -1.028302         1.331414
 H         3.801235         1.311707         1.675384
 H         3.011386         2.569685         0.482299
