19
Iteration:   317charge 0 multiplicity 1
 C         0.271923        -0.821502         0.640082
 C         1.484203        -0.183257         0.148219
 C         2.133055        -0.554991        -1.163721
 C         3.276115         0.288080        -0.611561
 C         4.624196        -0.393988        -0.486354
 O         4.006846        -1.240641         0.603186
 C         2.876365        -0.238613         0.834748
 C         2.683426         1.679993        -0.555352
 O         1.386079         1.274474         0.145123
 H         0.441417        -1.731754         1.142297
 H        -0.246580        -0.121446         1.318767
 H        -0.390163        -1.028785        -0.178209
 H         2.148252        -1.624932        -1.232705
 H         1.620865        -0.170791        -2.019920
 H         5.048426        -0.997880        -1.280219
 H         5.399543         0.220211        -0.065803
 H         2.976276         0.395966         1.677000
 H         3.139131         2.272722         0.152645
 H         2.540855         2.136133        -1.581783
