19
Iteration:  4793charge 0 multiplicity 1
 C         0.071274        -0.593950         0.492033
 C         1.524419        -0.188491         0.307066
 C         1.961613         0.913327        -0.586090
 C         3.348160         0.468330        -0.195848
 C         4.275507         0.056630        -1.344521
 O         3.298355        -1.051915        -1.704595
 C         2.772804        -0.939433        -0.188688
 C         3.341464         0.902929         1.325906
 O         2.135589         0.318038         1.558490
 H        -0.380804        -0.676159        -0.469547
 H        -0.180125        -1.493258         0.895899
 H        -0.408747         0.090100         1.122163
 H         1.866233         0.701298        -1.560181
 H         1.595031         1.948541        -0.488725
 H         4.345258         0.692650        -2.218581
 H         5.179919        -0.345809        -1.040140
 H         3.299239        -1.843936         0.374912
 H         4.076677         0.399628         2.070398
 H         3.278205         2.009876         1.481883
