19
Iteration:   346
 C         0.106542        -0.786533         0.766435
 C         1.477020        -0.317386         0.101192
 C         2.223928        -0.484174        -1.285910
 C         3.314187         0.400527        -0.621964
 C         4.646467        -0.452995        -0.418865
 O         4.055411        -1.279514         0.617044
 C         2.849747        -0.293446         0.784477
 C         2.540648         1.774540        -0.616333
 O         1.515329         1.231745         0.201080
 H         0.215257        -1.128028         1.820093
 H        -0.631750         0.070113         0.701749
 H        -0.234729        -1.692395         0.198663
 H         2.360875        -1.571149        -1.553956
 H         1.669671         0.002321        -2.114897
 H         5.034030        -1.148835        -1.265429
 H         5.407869         0.164518         0.087301
 H         2.971200         0.223577         1.824231
 H         2.926048         2.776263        -0.080043
 H         2.409985         2.176059        -1.637649
