19
Iteration:  2474
 C         0.125467        -0.725354         0.487443
 C         1.508035        -0.103009         0.244174
 C         1.854638         0.685088        -0.953792
 C         3.364749         0.522221        -0.346301
 C         4.436437        -0.281352        -1.189967
 O         3.508422        -1.456226        -1.101998
 C         2.864388        -0.865294         0.145242
 C         3.176517         1.377390         0.904221
 O         1.895416         0.744077         1.408239
 H         0.172409        -1.721709         0.056242
 H        -0.154295        -0.844445         1.545061
 H        -0.692903        -0.244394        -0.079447
 H         1.700324         0.184032        -1.902966
 H         1.307420         1.647614        -0.918406
 H         4.696499        -0.070462        -2.268055
 H         5.373548        -0.346576        -0.557788
 H         3.354089        -1.225822         0.995822
 H         4.069017         1.468068         1.556837
 H         2.905744         2.406741         0.743077
