19
Iteration:   799charge 0 multiplicity 1
 C         0.156534        -0.728528         0.600446
 C         1.513780        -0.237725         0.139077
 C         2.098610        -0.222858        -1.270003
 C         3.344014         0.396448        -0.490256
 C         4.588811        -0.469146        -0.685288
 O         3.981312        -1.488684         0.144616
 C         2.920294        -0.484420         0.759955
 C         2.713361         1.797243        -0.133708
 O         1.466556         1.239266         0.523597
 H        -0.582897        -0.548771        -0.229498
 H         0.032151        -1.791691         0.868705
 H        -0.078275        -0.126909         1.523896
 H         2.142648        -1.232635        -1.741945
 H         1.553632         0.431255        -2.004942
 H         4.678694        -0.784315        -1.726780
 H         5.549577        -0.191457        -0.204518
 H         3.072879        -0.233578         1.812710
 H         3.237688         2.588927         0.485561
 H         2.365200         2.454379        -0.940100
