19
Iteration:  4269charge 0 multiplicity 1
 C         0.131896        -0.726190         0.378177
 C         1.485424        -0.186788         0.297625
 C         2.008515         1.010122        -0.549668
 C         3.338650         0.448194        -0.193390
 C         4.246427         0.080895        -1.355440
 O         3.205791        -1.042527        -1.593354
 C         2.728148        -0.926408        -0.208221
 C         3.457556         0.872629         1.250078
 O         2.088481         0.367893         1.607113
 H         0.127785        -1.472501        -0.365772
 H         0.123093        -1.107523         1.337065
 H        -0.562530         0.015329         0.072825
 H         1.769121         0.930284        -1.644922
 H         1.760557         2.151868        -0.149217
 H         4.457294         0.654190        -2.220855
 H         5.206982        -0.357369        -0.939038
 H         3.113367        -1.942300         0.338691
 H         4.153522         0.356108         1.908580
 H         3.530798         1.873189         1.565541
