19
Iteration:  3107charge 0 multiplicity 1
 C         0.046703        -0.686232         0.579981
 C         1.446896        -0.120719         0.253067
 C         1.881769         0.913596        -0.776096
 C         3.347854         0.507839        -0.316983
 C         4.374921        -0.085701        -1.312253
 O         3.522529        -1.381813        -1.389857
 C         2.837094        -0.888277        -0.069264
 C         3.265406         1.140335         1.095559
 O         2.003496         0.535041         1.501346
 H        -0.256884        -1.666326        -0.040515
 H         0.147163        -1.090030         1.604347
 H        -0.864564         0.043250         0.308203
 H         1.768312         0.641240        -1.714191
 H         1.563282         1.925246        -0.592802
 H         4.702503         0.394071        -2.224893
 H         5.259692        -0.424591        -0.743060
 H         2.985263        -1.582362         0.780297
 H         3.882190         0.831542         1.990004
 H         3.149541         2.278502         0.952125
