19
Iteration:  1574charge 0 multiplicity 1
 C         0.119681        -0.754981         0.576907
 C         1.490319        -0.218714         0.164264
 C         1.883769         0.249936        -1.272902
 C         3.305665         0.525517        -0.439033
 C         4.519523        -0.411662        -0.945396
 O         3.766746        -1.554729        -0.516176
 C         2.924507        -0.627691         0.406497
 C         2.986380         1.664896         0.459890
 O         1.705022         1.009402         1.074903
 H        -0.712050        -0.272701         0.056676
 H         0.058157        -1.858792         0.353170
 H         0.086931        -0.500048         1.711381
 H         2.100850        -0.502261        -1.937722
 H         1.266864         1.100669        -1.650594
 H         4.883644        -0.577090        -2.013290
 H         5.458598        -0.335977        -0.371101
 H         3.216500        -0.732479         1.409425
 H         3.736085         1.728927         1.418897
 H         2.754184         2.728130         0.246637
