19
Iteration:  4609
 C         0.048907        -0.569883         0.507029
 C         1.524359        -0.073512         0.276067
 C         1.973618         0.939601        -0.705103
 C         3.342067         0.508830        -0.280951
 C         4.188848         0.110962        -1.384562
 O         3.359091        -1.097591        -1.555891
 C         2.815768        -0.911578        -0.155623
 C         3.437525         0.781510         1.282831
 O         2.034470         0.253713         1.614296
 H        -0.484385        -0.836609        -0.481567
 H         0.126827        -1.539855         1.075734
 H        -0.519287         0.064225         1.159695
 H         1.729172         0.822021        -1.690155
 H         1.706632         2.013247        -0.410864
 H         4.178743         0.666786        -2.280359
 H         5.168948        -0.124422        -1.075549
 H         3.243967        -1.636733         0.469560
 H         4.209774         0.103722         1.636448
 H         3.524323         1.711573         1.738253
