19
Iteration:  3100charge 0 multiplicity 1
 C         0.086583        -0.699593         0.570786
 C         1.447862        -0.130038         0.260353
 C         1.872509         0.911718        -0.753582
 C         3.362606         0.540020        -0.304539
 C         4.354978        -0.095898        -1.261483
 O         3.497088        -1.386247        -1.343309
 C         2.823246        -0.864469        -0.115375
 C         3.265649         1.134473         1.080687
 O         1.995561         0.508457         1.460597
 H        -0.096046        -1.400104        -0.211482
 H         0.027603        -1.095440         1.586395
 H        -0.659700         0.093574         0.579236
 H         1.699920         0.531025        -1.896210
 H         1.518878         2.062043        -0.707723
 H         4.582613         0.315968        -2.283388
 H         5.346835        -0.307866        -0.732353
 H         3.102308        -1.556425         0.720335
 H         4.013085         0.847875         1.809812
 H         3.178378         2.169067         1.090728
