19
Iteration:  4884charge 0 multiplicity 1
 C         0.029961        -0.663300         0.395889
 C         1.515961        -0.155264         0.315881
 C         1.987926         0.964254        -0.635163
 C         3.394575         0.514266        -0.173838
 C         4.229021         0.042334        -1.351166
 O         3.195661        -1.046122        -1.579886
 C         2.819256        -0.944370        -0.189887
 C         3.464696         0.913811         1.314234
 O         2.099582         0.279647         1.579612
 H         0.098864        -1.267050        -0.476149
 H        -0.106392        -1.318052         1.241870
 H        -0.606331         0.125682         0.542245
 H         1.859942         0.806385        -1.874093
 H         1.657003         2.059618        -0.539835
 H         4.054629         0.740648        -2.217231
 H         5.274596        -0.344146        -1.196284
 H         3.265160        -1.814217         0.486462
 H         4.206880         0.379994         1.960914
 H         3.426612         2.007244         1.521038
