19
Iteration:   902charge 0 multiplicity 1
 C         0.236389        -0.811731         0.617900
 C         1.497608        -0.196162         0.167183
 C         2.038744        -0.184158        -1.254700
 C         3.351226         0.466872        -0.499894
 C         4.518763        -0.440672        -0.646768
 O         3.830853        -1.536388         0.003761
 C         2.945204        -0.455817         0.661108
 C         2.774993         1.801647         0.014862
 O         1.556674         1.237898         0.505179
 H         0.000270        -0.522681         1.638374
 H        -0.557391        -0.325911         0.038539
 H         0.164212        -1.883479         0.533526
 H         2.206715        -1.268540        -1.501664
 H         1.478363         0.433621        -1.975524
 H         4.694597        -0.807767        -1.684599
 H         5.526734        -0.140485        -0.269446
 H         3.245198        -0.353349         1.696301
 H         3.251945         2.143126         0.911834
 H         2.590506         2.532830        -0.677954
