19
Iteration:  2760charge 0 multiplicity 1
 C         0.195506        -0.751970         0.496363
 C         1.511529        -0.120428         0.154208
 C         1.881154         0.785170        -0.960994
 C         3.363609         0.579661        -0.293338
 C         4.307078        -0.188803        -1.282232
 O         3.420985        -1.379040        -1.082363
 C         2.930327        -0.847510         0.102863
 C         3.188010         1.251058         1.090719
 O         1.958946         0.599669         1.316002
 H        -0.570894        -0.417456        -0.320400
 H         0.171053        -1.771503         0.835560
 H        -0.124037        -0.235474         1.439864
 H         1.898424         0.299966        -1.830135
 H         1.357578         1.644968        -0.965234
 H         4.363178         0.174042        -2.269644
 H         5.261463        -0.490760        -0.942040
 H         3.294680        -1.334598         1.011719
 H         3.872513         0.931479         1.935393
 H         3.027510         2.357779         1.230294
