19
Iteration:  1544
 C         0.197349        -0.781005         0.561423
 C         1.550203        -0.166916         0.296242
 C         1.937585         0.264691        -1.198407
 C         3.254840         0.408166        -0.335810
 C         4.403120        -0.292241        -0.879134
 O         3.770243        -1.585945        -0.546924
 C         2.936862        -0.841242         0.400006
 C         3.010918         1.657167         0.394018
 O         1.652366         1.219845         0.924984
 H        -0.620552        -0.128571         0.794210
 H         0.016264        -1.311582        -0.377557
 H         0.306701        -1.532204         1.355088
 H         2.165856        -0.524007        -1.914327
 H         1.363364         1.157089        -1.503165
 H         4.588534        -0.371448        -1.980945
 H         5.395659        -0.264856        -0.332969
 H         3.279596        -1.064150         1.429536
 H         3.589829         1.548407         1.275788
 H         2.817567         2.553956        -0.087542
