19
Iteration:  1267charge 0 multiplicity 1
 C         0.181852        -0.728230         0.571269
 C         1.497091        -0.189255         0.215479
 C         1.943314         0.040313        -1.282092
 C         3.243412         0.485546        -0.560688
 C         4.547176        -0.414214        -0.772976
 O         3.821904        -1.581314        -0.251954
 C         2.984815        -0.678439         0.493809
 C         2.958358         1.748975         0.282570
 O         1.552153         1.161908         0.847481
 H         0.102757        -1.456919         1.366274
 H        -0.482853         0.119899         0.741861
 H        -0.284946        -1.283768        -0.196548
 H         2.225871        -0.810044        -1.968535
 H         1.363850         0.803199        -1.763396
 H         4.992309        -0.526407        -1.792159
 H         5.360476        -0.050885        -0.167113
 H         3.328435        -0.445769         1.492412
 H         3.563558         1.744497         1.211807
 H         2.727824         2.623409        -0.251218
