19
Iteration:  1528charge 0 multiplicity 1
 C         0.182399        -0.849857         0.559014
 C         1.487219        -0.181631         0.158667
 C         1.985675         0.230073        -1.154801
 C         3.366046         0.516023        -0.400507
 C         4.477016        -0.393931        -0.978973
 O         3.710727        -1.600813        -0.548509
 C         2.908606        -0.731576         0.523463
 C         2.965323         1.688116         0.519884
 O         1.651490         1.175503         0.919106
 H        -0.372272        -0.109387         1.219496
 H        -0.490515        -1.044188        -0.301937
 H         0.405220        -1.734439         1.213034
 H         1.904218        -0.684693        -1.814685
 H         1.567204         1.135260        -1.580379
 H         4.693501        -0.299006        -2.070182
 H         5.451858        -0.309579        -0.485434
 H         3.236207        -0.978010         1.537983
 H         3.624846         2.068235         1.379736
 H         2.871121         2.617547        -0.182937
