19
Iteration:  1828
 C         0.248755        -0.795598         0.578302
 C         1.598380        -0.150299         0.199692
 C         1.970710         0.309232        -1.164444
 C         3.327995         0.582595        -0.472751
 C         4.384683        -0.279120        -0.997301
 O         3.535182        -1.585715        -0.711946
 C         2.929572        -0.772018         0.352750
 C         2.999900         1.552052         0.722318
 O         1.735347         1.053191         1.085554
 H        -0.431041        -0.525913        -0.339635
 H         0.261210        -1.916838         0.473327
 H        -0.181872        -0.570731         1.580578
 H         1.948193        -0.557103        -1.845027
 H         1.546535         1.209669        -1.537117
 H         4.648294        -0.256553        -2.054834
 H         5.318513        -0.164243        -0.516099
 H         3.308066        -1.017470         1.311025
 H         3.902318         1.462772         1.467043
 H         2.981398         2.678715         0.425142
