19
Iteration:  2652
 C         0.044521        -0.763882         0.496432
 C         1.432289        -0.134751         0.160168
 C         1.883257         0.756698        -0.962828
 C         3.292157         0.463627        -0.330248
 C         4.389581        -0.168105        -1.253203
 O         3.625179        -1.440165        -1.095265
 C         2.865931        -0.938619         0.115785
 C         3.261527         1.327533         0.987308
 O         1.926716         0.794837         1.467513
 H        -0.399584        -0.420507         1.444046
 H        -0.668714        -0.542988        -0.230927
 H         0.128714        -1.833815         0.610993
 H         1.692824         0.181928        -1.916175
 H         1.502098         1.806556        -0.961665
 H         4.312562         0.073635        -2.316376
 H         5.474956        -0.240325        -0.949536
 H         3.111436        -1.557218         0.878229
 H         3.983923         1.179527         1.708393
 H         3.161554         2.346219         0.780379
