19
Iteration:  1686
 C         0.135664        -0.861003         0.601471
 C         1.437674        -0.188028         0.092408
 C         2.008765         0.451629        -1.224308
 C         3.343300         0.563132        -0.377640
 C         4.403630        -0.442320        -0.986510
 O         3.748960        -1.608027        -0.588909
 C         2.884236        -0.723889         0.401988
 C         2.938121         1.713367         0.538500
 O         1.771100         0.994442         1.076250
 H         0.474560        -1.777890         1.219246
 H        -0.124703        -0.159537         1.434349
 H        -0.738243        -1.054147        -0.021180
 H         2.024885        -0.236819        -2.143564
 H         1.567027         1.369562        -1.438553
 H         4.711901        -0.442400        -2.054368
 H         5.381214        -0.381001        -0.447914
 H         3.261796        -0.821027         1.412794
 H         3.910669         1.795340         1.203112
 H         2.548968         2.549927         0.052538
