19
Iteration:  1830charge 0 multiplicity 1
 C         0.235161        -0.799641         0.559534
 C         1.581461        -0.137593         0.200988
 C         1.976605         0.315825        -1.144544
 C         3.320542         0.576625        -0.475301
 C         4.385101        -0.304858        -1.004608
 O         3.553709        -1.591229        -0.719951
 C         2.950766        -0.790130         0.347943
 C         2.984816         1.568874         0.724507
 O         1.743988         1.063018         1.087662
 H        -0.448782        -0.593725        -0.330893
 H         0.259784        -1.925907         0.565828
 H        -0.136960        -0.500136         1.570664
 H         1.977574        -0.470487        -1.814293
 H         1.479629         1.267099        -1.524255
 H         4.618428        -0.239835        -2.044025
 H         5.328187        -0.162252        -0.529427
 H         3.266612        -1.048496         1.346941
 H         3.897214         1.558354         1.480641
 H         2.933061         2.600628         0.456537
