19
Iteration:  2028charge 0 multiplicity 1
 C         0.054216        -0.799749         0.571778
 C         1.444434        -0.155703         0.211006
 C         2.029951         0.553917        -1.071546
 C         3.405756         0.448641        -0.332730
 C         4.412889        -0.274761        -1.190514
 O         3.687220        -1.532121        -0.788200
 C         2.921837        -0.868383         0.230567
 C         3.061391         1.507697         0.705895
 O         1.750158         0.973697         1.217946
 H        -0.442859        -0.175717         1.328687
 H        -0.731205        -0.923131        -0.271623
 H         0.312463        -1.754622         1.168013
 H         2.080032        -0.079145        -1.988533
 H         1.660849         1.538955        -1.250394
 H         4.338420        -0.136730        -2.248465
 H         5.435820        -0.335895        -0.754647
 H         3.201942        -1.093264         1.226300
 H         3.604267         1.660166         1.713866
 H         2.736814         2.472056         0.271525
