19
Iteration:  4791charge 0 multiplicity 1
 C         0.060535        -0.591004         0.491376
 C         1.515897        -0.199953         0.298805
 C         1.967306         0.921817        -0.582278
 C         3.352545         0.459184        -0.205878
 C         4.281965         0.067317        -1.335831
 O         3.310905        -1.051220        -1.704685
 C         2.778835        -0.926104        -0.187496
 C         3.349204         0.907796         1.316568
 O         2.121083         0.312473         1.571146
 H        -0.386403        -0.619745        -0.518059
 H        -0.236628        -1.604712         0.919599
 H        -0.402537         0.206762         1.238858
 H         1.836393         0.648257        -1.566902
 H         1.608303         1.889266        -0.410453
 H         4.293633         0.572448        -2.292746
 H         5.167837        -0.373518        -1.090475
 H         3.334005        -1.831398         0.356087
 H         4.089340         0.419401         2.010801
 H         3.266388         2.018606         1.495802
