19
Iteration:  1944
 C         0.264439        -0.778538         0.592163
 C         1.530936        -0.162091         0.166849
 C         1.908484         0.574196        -1.066907
 C         3.389561         0.429939        -0.265212
 C         4.452778        -0.292473        -1.075684
 O         3.632846        -1.625294        -0.764500
 C         2.853709        -0.931483         0.246590
 C         2.961385         1.651359         0.644033
 O         1.776861         1.008014         1.124435
 H         0.493071        -1.715130         1.059772
 H        -0.321815        -0.154676         1.262784
 H        -0.372244        -0.949699        -0.255038
 H         1.763890        -0.126871        -2.038518
 H         1.508305         1.530730        -1.319993
 H         4.546426        -0.003401        -2.147672
 H         5.490828        -0.396019        -0.740959
 H         2.797358        -1.385936         1.310778
 H         3.530025         1.757462         1.572824
 H         2.832690         2.606092         0.200197
