19
Iteration:  3463
 C         0.157948        -0.699088         0.434426
 C         1.554633        -0.182330         0.182955
 C         1.976539         0.922776        -0.739447
 C         3.409007         0.550308        -0.186705
 C         4.225369        -0.097965        -1.388377
 O         3.226805        -1.055247        -1.449521
 C         2.832609        -0.939134        -0.068461
 C         3.372379         1.022225         1.266764
 O         2.020740         0.372139         1.557062
 H        -0.006108        -1.716233        -0.057826
 H        -0.005966        -0.842700         1.714240
 H        -0.551738         0.069183         0.090523
 H         1.919784         0.622715        -1.812407
 H         1.569140         1.841117        -0.776953
 H         4.191466         0.510794        -2.295449
 H         5.142931        -0.437405        -1.020091
 H         3.265732        -1.598105         0.689315
 H         4.078052         0.625301         1.924059
 H         3.247034         2.109446         1.365008
