19
Iteration:  2191
 C         0.150371        -0.748892         0.496764
 C         1.495140        -0.192749         0.231208
 C         1.862296         0.582254        -1.010107
 C         3.328586         0.432903        -0.329904
 C         4.402139        -0.214219        -1.084996
 O         3.614647        -1.430205        -0.967882
 C         2.849522        -0.862322         0.182606
 C         3.188735         1.383967         0.816780
 O         1.839876         0.897855         1.253599
 H         0.214361        -1.756711         0.905679
 H        -0.423873        -0.172074         1.258412
 H        -0.351836        -0.743834        -0.486093
 H         1.681557        -0.043174        -1.983550
 H         1.436959         1.574961        -0.965315
 H         4.542747        -0.073233        -2.152165
 H         5.435604        -0.319733        -0.602475
 H         3.045991        -1.203722         1.276163
 H         3.895224         1.337162         1.607906
 H         3.087398         2.525180         0.502568
