19
Iteration:  3648charge 0 multiplicity 1
 C         0.199033        -0.750301         0.454919
 C         1.529651        -0.111457         0.223301
 C         1.950668         1.077979        -0.564451
 C         3.351557         0.476740        -0.168847
 C         4.214377         0.015820        -1.341062
 O         3.312267        -1.145426        -1.556173
 C         2.711246        -0.944487        -0.256396
 C         3.411034         0.820645         1.277980
 O         2.040194         0.459975         1.542017
 H        -0.623302        -0.078701         0.565192
 H         0.062409        -1.442301        -0.342252
 H         0.295576        -1.312234         1.345390
 H         1.686258         0.935679        -1.727589
 H         1.625468         2.010853        -0.099936
 H         4.100288         0.712250        -2.232013
 H         5.255079        -0.226705        -1.057483
 H         2.957221        -1.720167         0.499946
 H         4.259337         0.257759         1.921108
 H         3.484158         1.987779         1.398761
