19
Iteration:   720charge 0 multiplicity 1
 C         0.287679        -0.830891         0.698615
 C         1.535598        -0.208914         0.140578
 C         2.082350        -0.199598        -1.275632
 C         3.318227         0.424844        -0.499780
 C         4.548853        -0.496621        -0.544627
 O         3.860698        -1.463285         0.214910
 C         2.923685        -0.413204         0.730237
 C         2.767208         1.807832        -0.244186
 O         1.439328         1.263338         0.345161
 H         0.532739        -1.272847         1.684113
 H        -0.566195        -0.206446         0.641129
 H         0.030727        -1.698681         0.037565
 H         2.313021        -1.142240        -1.760454
 H         1.477754         0.446654        -1.783453
 H         4.770945        -0.930327        -1.532438
 H         5.478275        -0.173146        -0.116440
 H         2.955316        -0.244785         1.813052
 H         3.213630         2.178158         0.635047
 H         2.584214         2.437098        -1.071082
