19
Iteration:  1559
 C         0.157004        -0.794257         0.576648
 C         1.463198        -0.154258         0.222587
 C         1.918941         0.266497        -1.142208
 C         3.300556         0.484648        -0.502451
 C         4.492604        -0.305004        -0.909657
 O         3.754275        -1.565097        -0.521547
 C         2.914871        -0.798699         0.441231
 C         2.993500         1.599037         0.487024
 O         1.722561         1.109730         0.936280
 H        -0.645187        -0.058269         0.322519
 H         0.005206        -1.706503         0.000814
 H         0.040051        -1.095787         1.601029
 H         1.753989        -0.590314        -1.902685
 H         1.500297         1.165823        -1.598307
 H         4.745928        -0.214495        -1.944178
 H         5.315053        -0.073184        -0.233823
 H         3.291515        -0.933705         1.503311
 H         3.741710         1.786339         1.243535
 H         2.891718         2.611729        -0.139731
