19
Iteration:   456
 C         0.213979        -0.837982         0.673680
 C         1.491792        -0.267772         0.155157
 C         2.091588        -0.498181        -1.257319
 C         3.281295         0.373039        -0.570693
 C         4.627843        -0.435097        -0.469160
 O         3.949076        -1.335473         0.480822
 C         2.898956        -0.233667         0.752842
 C         2.657290         1.767892        -0.443122
 O         1.480097         1.293211         0.248404
 H        -0.368127        -1.183767        -0.182623
 H         0.341145        -1.777294         1.320549
 H        -0.415241        -0.076244         1.144614
 H         2.460082        -1.488340        -1.500646
 H         1.626100        -0.124371        -2.170001
 H         5.043995        -1.069555        -1.342988
 H         5.471239         0.100088         0.048007
 H         3.221648         0.381065         1.639452
 H         3.418316         2.396144         0.239539
 H         2.334737         2.297249        -1.381832
