19
Iteration:  3229
 C         0.076012        -0.676980         0.516533
 C         1.470732        -0.120464         0.250942
 C         1.917326         0.810801        -0.850777
 C         3.417681         0.558787        -0.224295
 C         4.304356        -0.099125        -1.348764
 O         3.338656        -1.192161        -1.421042
 C         2.940413        -0.875824         0.007007
 C         3.319337         1.065158         1.171818
 O         1.951214         0.464325         1.496774
 H        -0.096592        -0.665123         1.641192
 H        -0.812352        -0.086615         0.051412
 H         0.040737        -1.768172         0.078120
 H         1.792549         0.463770        -1.760829
 H         1.504974         1.816175        -0.752735
 H         4.440981         0.486689        -2.227005
 H         5.172644        -0.581731        -0.933121
 H         3.443932        -1.532505         0.759178
 H         4.156139         0.485493         1.745402
 H         3.520074         2.256553         1.469795
