19
Iteration:  1106charge 0 multiplicity 1
 C         0.089529        -0.810207         0.557002
 C         1.499996        -0.192768         0.166764
 C         2.003110        -0.097937        -1.249936
 C         3.282842         0.462973        -0.472213
 C         4.521314        -0.344795        -0.797355
 O         3.840286        -1.539312        -0.136762
 C         2.989629        -0.641730         0.648096
 C         2.917303         1.744068         0.168081
 O         1.574044         1.274820         0.695716
 H        -0.171305        -0.343521         1.527333
 H        -0.615423        -0.615021        -0.284150
 H         0.213485        -1.918647         0.654229
 H         2.230316        -1.141945        -1.641829
 H         1.327646         0.467857        -1.889968
 H         4.771866        -0.413567        -1.873855
 H         5.522754        -0.129356        -0.298933
 H         3.184990        -0.371572         1.738130
 H         3.566069         1.810345         0.955341
 H         2.850746         2.642580        -0.503091
