19
Iteration:   936charge 0 multiplicity 1
 C         0.131372        -0.862711         0.616937
 C         1.473877        -0.183370         0.188040
 C         1.976460        -0.077209        -1.173725
 C         3.321823         0.390223        -0.511020
 C         4.563207        -0.414412        -0.690159
 O         3.943826        -1.524237        -0.010766
 C         2.944271        -0.530730         0.670295
 C         2.817103         1.706141        -0.027228
 O         1.555504         1.319690         0.541167
 H        -0.540789        -0.038179         0.654017
 H        -0.150231        -1.399412        -0.244793
 H         0.081050        -1.506120         1.489826
 H         2.100315        -1.089179        -1.693296
 H         1.646366         0.612019        -1.886165
 H         4.656157        -0.722060        -1.768680
 H         5.452552         0.078767        -0.241040
 H         3.128700        -0.365946         1.737876
 H         3.342277         2.061896         0.799518
 H         2.716489         2.496205        -0.638776
