19
Iteration:  2979charge 0 multiplicity 1
 C         0.147108        -0.717155         0.548942
 C         1.500208        -0.121160         0.295692
 C         1.858815         0.830587        -0.921384
 C         3.335681         0.553011        -0.291574
 C         4.312007        -0.113378        -1.184247
 O         3.464809        -1.370499        -1.297947
 C         2.890757        -0.867359        -0.094083
 C         3.258807         1.114974         1.048918
 O         1.946754         0.610882         1.497853
 H        -0.468888         0.081705         0.854527
 H        -0.273257        -1.001893        -0.374114
 H         0.134009        -1.574369         1.122138
 H         1.737258         0.380281        -1.934496
 H         1.461518         1.934977        -0.917603
 H         4.465640         0.384157        -2.138944
 H         5.247317        -0.385942        -0.654810
 H         3.274262        -1.507833         0.745076
 H         4.048630         0.655839         1.672033
 H         3.302658         2.207483         1.158853
