19
Iteration:  4067charge 0 multiplicity 1
 C         0.093340        -0.718711         0.448615
 C         1.542894        -0.156338         0.197701
 C         1.947036         1.061574        -0.561126
 C         3.427033         0.582105        -0.174955
 C         4.205087         0.003614        -1.433906
 O         3.238627        -1.050421        -1.535598
 C         2.799824        -0.837604        -0.146256
 C         3.422659         0.801147         1.327587
 O         2.032382         0.272400         1.496363
 H        -0.089326        -1.631568        -0.142009
 H         0.150868        -1.047833         1.534626
 H        -0.647829         0.105680         0.403406
 H         1.913617         0.829432        -1.724473
 H         1.763565         2.059174        -0.300343
 H         4.282843         0.704319        -2.363212
 H         5.224623        -0.354373        -1.228909
 H         3.254724        -1.718199         0.538773
 H         4.124291         0.072708         1.822272
 H         3.580205         1.776737         1.745181
