19
Iteration:   445charge 0 multiplicity 1
 C         0.288963        -0.802578         0.646117
 C         1.561349        -0.219660         0.133635
 C         2.106622        -0.447965        -1.270999
 C         3.323270         0.387859        -0.702501
 C         4.574568        -0.486689        -0.408186
 O         3.922568        -1.302731         0.542503
 C         2.955509        -0.321510         0.727897
 C         2.623594         1.728395        -0.445711
 O         1.416456         1.268118         0.271825
 H        -0.431118        -0.835013        -0.165558
 H         0.494102        -1.812926         1.166515
 H        -0.033232        -0.136195         1.474106
 H         2.400394        -1.495593        -1.364859
 H         1.463392        -0.020553        -2.039734
 H         4.929324        -1.157518        -1.284274
 H         5.426960         0.138680        -0.051102
 H         2.909093         0.138352         1.774224
 H         3.072939         2.606579         0.257817
 H         2.293793         2.269735        -1.383867
