19
Iteration:  1943charge 0 multiplicity 1
 C         0.261611        -0.784061         0.590295
 C         1.533500        -0.167128         0.176866
 C         1.904496         0.570389        -1.074456
 C         3.396341         0.432782        -0.263768
 C         4.450448        -0.292928        -1.077669
 O         3.638753        -1.624885        -0.770074
 C         2.848714        -0.935904         0.253638
 C         2.965437         1.655408         0.642358
 O         1.769630         1.012837         1.123255
 H         0.456218        -1.722100         1.052364
 H        -0.294228        -0.136467         1.304468
 H        -0.403418        -0.942453        -0.274713
 H         1.765876        -0.092566        -2.057839
 H         1.496333         1.524902        -1.331036
 H         4.543340         0.017187        -2.110745
 H         5.476375        -0.386813        -0.734307
 H         2.799006        -1.366383         1.312349
 H         3.588819         1.734163         1.609340
 H         2.870108         2.597241         0.176809
