19
Iteration:  1216
 C         0.203873        -0.827179         0.538864
 C         1.555260        -0.201932         0.175976
 C         2.025986         0.099922        -1.233040
 C         3.295494         0.521013        -0.483330
 C         4.446934        -0.463163        -0.831258
 O         3.774151        -1.576008        -0.203373
 C         3.033482        -0.639018         0.622062
 C         2.871860         1.760842         0.254228
 O         1.596471         1.204916         0.739476
 H        -0.094418        -1.700859        -0.067954
 H         0.110125        -1.135880         1.603072
 H        -0.712296        -0.124796         0.444747
 H         2.159001        -0.879545        -1.857125
 H         1.483505         0.827185        -1.803559
 H         4.562036        -0.728912        -1.912094
 H         5.446105        -0.179315        -0.255523
 H         3.046585        -0.719685         1.762729
 H         3.519864         2.110888         1.005538
 H         2.515325         2.650578        -0.448687
