19
Iteration:   162
 C         0.174164        -0.752215         0.677856
 C         1.511668        -0.250915         0.137048
 C         2.212362        -0.545650        -1.217128
 C         3.334506         0.329140        -0.576345
 C         4.631638        -0.434855        -0.415242
 O         4.037251        -1.219219         0.782669
 C         2.928938        -0.121287         0.880296
 C         2.564454         1.615461        -0.714273
 O         1.361876         1.174425         0.001561
 H         0.410731        -0.820405         1.761804
 H        -0.604010         0.032161         0.544190
 H        -0.122274        -1.762069         0.322195
 H         2.516307        -1.595344        -1.272113
 H         1.686683        -0.155452        -2.115738
 H         4.949361        -1.117759        -1.286773
 H         5.432989         0.212436        -0.100111
 H         3.152725         0.597685         1.681887
 H         2.917021         2.446497         0.019222
 H         2.139415         1.997660        -1.789313
