19
Iteration:  1918
 C         0.083147        -0.778387         0.604265
 C         1.466614        -0.214400         0.217116
 C         1.993655         0.395844        -1.074827
 C         3.302072         0.489393        -0.416204
 C         4.421688        -0.293137        -1.055970
 O         3.606458        -1.481343        -0.799619
 C         2.994310        -0.773979         0.330848
 C         3.108617         1.496527         0.696133
 O         1.755106         1.030222         1.075440
 H         0.212061        -1.890325         0.601997
 H        -0.334016        -0.457749         1.610367
 H        -0.673142        -0.597965        -0.231743
 H         1.989476        -0.299146        -1.850626
 H         1.531736         1.314523        -1.531016
 H         4.687972        -0.189027        -2.075476
 H         5.346107        -0.229996        -0.475241
 H         3.332538        -0.982920         1.323342
 H         3.800416         1.264973         1.664275
 H         3.034590         2.607101         0.494121
