19
Iteration:  4013charge 0 multiplicity 1
 C         0.022653        -0.610172         0.497461
 C         1.525393        -0.247867         0.316096
 C         1.947750         0.952535        -0.688813
 C         3.377575         0.576786        -0.205608
 C         4.291930         0.018776        -1.311092
 O         3.260460        -1.002722        -1.631579
 C         2.817343        -0.950588        -0.224012
 C         3.422962         0.926940         1.243669
 O         2.073623         0.224174         1.631760
 H        -0.364855        -0.968929        -0.381894
 H        -0.112894        -1.420926         1.221016
 H        -0.579980         0.215714         0.834927
 H         1.809907         1.045179        -1.905840
 H         1.525039         2.018480        -0.385200
 H         4.637388         0.687805        -2.136015
 H         5.124667        -0.400429        -0.831116
 H         3.231236        -1.941712         0.317984
 H         4.212460         0.431276         1.868925
 H         3.457950         1.964690         1.413845
