19
Iteration:  2167charge 0 multiplicity 1
 C         0.114977        -0.784880         0.457900
 C         1.451446        -0.131040         0.271212
 C         1.908027         0.598094        -1.020211
 C         3.317464         0.482892        -0.373138
 C         4.354255        -0.235757        -1.056850
 O         3.615843        -1.541621        -1.003993
 C         2.906298        -0.932215         0.203151
 C         3.174594         1.505307         0.764366
 O         1.853971         0.931412         1.346743
 H         0.306542        -1.777938         0.213429
 H        -0.232130        -0.812208         1.502550
 H        -0.604510        -0.384328        -0.240639
 H         1.868419        -0.041253        -1.961846
 H         1.567331         1.692048        -1.103640
 H         4.723917        -0.046782        -2.098085
 H         5.215792        -0.277283        -0.373996
 H         3.285575        -1.553778         1.159521
 H         3.934571         1.515029         1.523054
 H         2.848447         2.599888         0.501843
