19
Iteration:   527
 C         0.152811        -0.784610         0.729530
 C         1.508989        -0.265502         0.146309
 C         2.193813        -0.368114        -1.296528
 C         3.333458         0.394723        -0.603161
 C         4.587428        -0.497369        -0.483833
 O         3.931972        -1.266786         0.404100
 C         2.886816        -0.302563         0.718595
 C         2.684044         1.737286        -0.400376
 O         1.484452         1.164131         0.308858
 H         0.411183        -1.478999         1.580611
 H        -0.411228        -0.042862         1.201498
 H        -0.459643        -1.275464        -0.042311
 H         2.425891        -1.430480        -1.665629
 H         1.703922        -0.035035        -2.237215
 H         4.930059        -0.950799        -1.370441
 H         5.342716        -0.037207         0.149439
 H         2.874860         0.199725         1.671762
 H         3.050579         2.412901         0.348712
 H         2.459621         2.508245        -1.196549
