19
Iteration:  2992
 C         0.121431        -0.716876         0.500227
 C         1.481808        -0.130200         0.240973
 C         1.908941         0.789984        -0.884816
 C         3.332350         0.589653        -0.363736
 C         4.401457        -0.125846        -1.262676
 O         3.379416        -1.261740        -1.261387
 C         2.810414        -0.827392         0.036624
 C         3.285680         1.103026         1.093637
 O         1.978031         0.536083         1.472561
 H        -0.647160        -0.024143         0.713633
 H        -0.152545        -1.435612        -0.295422
 H         0.280117        -1.201117         1.422371
 H         1.764248         0.151457        -1.826708
 H         1.556021         1.723839        -0.989185
 H         4.651629         0.236435        -2.272861
 H         5.296630        -0.424940        -0.773129
 H         3.255841        -1.313754         0.913158
 H         4.071458         0.636765         1.719448
 H         3.250767         2.252718         1.243328
