19
Iteration:   192charge 0 multiplicity 1
 C         0.189272        -0.822306         0.675450
 C         1.471437        -0.230563         0.190037
 C         2.190285        -0.695346        -1.117908
 C         3.319613         0.322806        -0.511539
 C         4.616410        -0.397770        -0.433735
 O         4.082584        -1.215364         0.620296
 C         2.852963        -0.197510         0.905295
 C         2.616113         1.683131        -0.635846
 O         1.361786         1.344346        -0.086634
 H        -0.263361        -0.069581         1.397955
 H        -0.494937        -1.063641        -0.119089
 H         0.379876        -1.768298         1.197923
 H         2.567900        -1.719102        -1.006709
 H         1.682559        -0.594438        -2.133906
 H         4.819517        -0.969579        -1.365593
 H         5.476516         0.199172        -0.115351
 H         3.074506         0.386217         1.892451
 H         3.153251         2.515808         0.034347
 H         2.576082         2.272421        -1.608806
