19
Iteration:  4255charge 0 multiplicity 1
 C         0.152340        -0.732905         0.309264
 C         1.573665        -0.089965         0.300587
 C         1.975767         1.006104        -0.572493
 C         3.444768         0.458481        -0.157737
 C         4.203188        -0.019155        -1.353576
 O         3.176576        -0.993777        -1.612400
 C         2.753201        -0.963209        -0.165410
 C         3.394358         0.927579         1.262577
 O         2.103087         0.296498         1.662923
 H         0.071798        -1.568498        -0.396891
 H        -0.229294        -1.205015         1.295659
 H        -0.748214        -0.003769         0.095676
 H         1.770262         0.951177        -1.571753
 H         1.706451         2.019483        -0.210912
 H         4.254007         0.778249        -2.167239
 H         5.220249        -0.513888        -1.230575
 H         3.020522        -1.723180         0.378482
 H         4.275281         0.543941         1.884732
 H         3.371205         2.009750         1.193863
