19
Iteration:  3273
 C         0.051393        -0.650525         0.522205
 C         1.513086        -0.191130         0.203791
 C         1.919990         0.922092        -0.774841
 C         3.348657         0.476297        -0.215138
 C         4.269896        -0.066838        -1.276800
 O         3.448316        -1.234454        -1.423222
 C         2.803711        -0.985384        -0.089168
 C         3.349663         1.100453         1.114792
 O         2.035405         0.466350         1.525577
 H        -0.343627        -0.423629         1.557667
 H        -0.843120        -0.297465        -0.135896
 H         0.131613        -1.816662         0.469715
 H         1.869885         0.861435        -1.762381
 H         1.529803         1.879782        -0.463915
 H         4.170821         0.541040        -2.156468
 H         5.294219        -0.176250        -0.974812
 H         3.218264        -1.691526         0.655155
 H         4.178601         1.004898         1.937353
 H         3.137189         2.315920         0.970723
