19
Iteration:  3336charge 0 multiplicity 1
 C         0.102890        -0.805047         0.393267
 C         1.472937        -0.163272         0.291498
 C         1.990504         0.877536        -0.700195
 C         3.395161         0.497345        -0.235865
 C         4.302425        -0.037748        -1.320409
 O         3.276942        -1.182525        -1.428888
 C         2.773686        -0.944102        -0.004890
 C         3.391095         1.080691         1.156712
 O         2.015897         0.581016         1.486364
 H        -0.672025        -0.182911         0.860270
 H        -0.148525        -1.214230        -0.534644
 H         0.367304        -1.573208         1.205714
 H         1.739875         0.680301        -1.842944
 H         1.681768         1.906947        -0.312355
 H         4.300653         0.506802        -2.281506
 H         5.396266        -0.321782        -1.180113
 H         3.107294        -1.739299         0.690995
 H         4.177123         0.622792         1.814765
 H         3.370688         2.054100         1.253994
