19
Iteration:  4946charge 0 multiplicity 1
 C         0.059773        -0.637141         0.511418
 C         1.413696        -0.126600         0.170345
 C         1.892306         1.017658        -0.664733
 C         3.336767         0.576139        -0.229830
 C         4.283477         0.038439        -1.330010
 O         3.423687        -1.128508        -1.567847
 C         2.694107        -0.885760        -0.228180
 C         3.422488         0.815789         1.266463
 O         2.157819         0.298489         1.648814
 H        -0.831722        -0.636248        -0.217441
 H         0.287099        -1.652612         0.812461
 H        -0.499172        -0.046219         1.377330
 H         1.746053         0.761891        -1.606161
 H         1.567714         1.978889        -0.405237
 H         4.324738         0.407395        -2.346633
 H         5.285971        -0.331820        -1.072007
 H         3.008118        -1.711273         0.390527
 H         4.268547         0.243582         1.784565
 H         3.466630         1.860315         1.592513
