19
Iteration:  1004
 C         0.129409        -0.885381         0.653746
 C         1.469380        -0.225247         0.246829
 C         1.979443        -0.043940        -1.174395
 C         3.352704         0.478294        -0.441219
 C         4.613815        -0.409189        -0.732155
 O         3.882871        -1.562179        -0.094104
 C         2.917189        -0.590629         0.568875
 C         2.873534         1.751782         0.038315
 O         1.495819         1.356096         0.533885
 H        -0.029260        -1.674870        -0.084928
 H         0.215064        -1.275584         1.670804
 H        -0.643887        -0.128080         0.559012
 H         2.185394        -1.006030        -1.614655
 H         1.574268         0.656205        -1.950545
 H         4.809116        -0.656003        -1.817064
 H         5.481910        -0.269265        -0.053128
 H         3.145638        -0.740921         1.675919
 H         3.497123         2.074182         0.811283
 H         2.833170         2.603647        -0.584769
