19
Iteration:  3754charge 0 multiplicity 1
 C         0.148067        -0.681278         0.479638
 C         1.506315        -0.086264         0.219378
 C         1.891076         1.013938        -0.638582
 C         3.364005         0.586161        -0.177937
 C         4.203328         0.060929        -1.362407
 O         3.288966        -1.077316        -1.573543
 C         2.769726        -0.933092        -0.227472
 C         3.489217         0.744385         1.332599
 O         2.047072         0.342234         1.550405
 H        -0.185554        -1.462062        -0.367745
 H         0.381561        -1.303608         1.490920
 H        -0.682662         0.152791         0.662529
 H         1.696070         0.732021        -1.662545
 H         1.593527         2.044592        -0.513542
 H         4.407538         0.685108        -2.212933
 H         5.175781        -0.341513        -1.013027
 H         3.096311        -1.675049         0.522122
 H         4.092196        -0.022296         1.667723
 H         3.738745         1.674017         1.842877
