19
Iteration:  1477charge 0 multiplicity 1
 C         0.218191        -0.854989         0.529601
 C         1.445869        -0.108069         0.186778
 C         1.867725         0.283880        -1.176936
 C         3.284219         0.504300        -0.430260
 C         4.503627        -0.397265        -0.909447
 O         3.765291        -1.587086        -0.363347
 C         2.892585        -0.762228         0.406018
 C         2.965301         1.666353         0.420751
 O         1.732052         1.133181         0.904793
 H         0.227761        -1.315199         1.482855
 H        -0.607689        -0.163349         0.490565
 H         0.166489        -1.659190        -0.267654
 H         1.952714        -0.505265        -1.823534
 H         1.361983         1.223587        -1.530066
 H         4.775586        -0.325277        -2.006087
 H         5.463912        -0.247679        -0.339627
 H         3.217735        -0.864700         1.443976
 H         3.690110         1.708113         1.270574
 H         2.818760         2.611996        -0.132164
