19
Iteration:  2836charge 0 multiplicity 1
 C         0.101540        -0.709630         0.550883
 C         1.548353        -0.212002         0.199922
 C         1.993787         0.765488        -0.926125
 C         3.378866         0.612617        -0.337294
 C         4.309753        -0.139373        -1.255548
 O         3.391014        -1.320980        -1.196420
 C         2.894500        -0.877527         0.018967
 C         3.203884         1.200226         1.084888
 O         1.908827         0.638391         1.402743
 H         0.167474        -1.881109         0.578917
 H        -0.049605        -0.576112         1.601740
 H        -0.748297        -0.424111        -0.085111
 H         2.000858         0.252087        -1.757027
 H         1.711463         1.735851        -1.084624
 H         4.436971         0.121164        -2.282958
 H         5.274252        -0.352410        -0.794008
 H         3.327382        -1.457531         0.925068
 H         3.948834         0.658556         1.807397
 H         3.116274         2.348692         1.314673
