19
Iteration:  4758
 C         0.093932        -0.572598         0.504779
 C         1.498551        -0.123668         0.262136
 C         1.911796         1.049882        -0.638695
 C         3.339990         0.527453        -0.223134
 C         4.226423         0.088600        -1.365107
 O         3.354440        -1.135566        -1.528951
 C         2.799090        -0.910991        -0.180512
 C         3.363003         0.820119         1.254418
 O         2.114983         0.190043         1.525612
 H        -0.446521        -0.376404        -0.417474
 H         0.203331        -1.626939         0.783341
 H        -0.379266         0.103787         1.281941
 H         1.678075         0.759971        -1.637136
 H         1.607511         1.993205        -0.310882
 H         4.229519         0.558288        -2.343165
 H         5.214630        -0.167112        -1.136486
 H         3.211270        -1.697561         0.603417
 H         4.189185         0.310429         1.808151
 H         3.344232         1.893118         1.605450
