19
Iteration:  3097charge 0 multiplicity 1
 C         0.118875        -0.700432         0.568309
 C         1.458960        -0.126342         0.259670
 C         1.866627         0.912607        -0.786088
 C         3.359952         0.556602        -0.295779
 C         4.347184        -0.110368        -1.242701
 O         3.485723        -1.366453        -1.318825
 C         2.809533        -0.879239        -0.125155
 C         3.267941         1.126417         1.072787
 O         1.987140         0.495456         1.450039
 H        -0.084115        -1.405205        -0.350891
 H        -0.008512        -1.138427         1.573843
 H        -0.651030         0.217390         0.677454
 H         1.689638         0.553300        -1.746178
 H         1.529080         1.996252        -0.721319
 H         4.460191         0.272098        -2.263641
 H         5.352572        -0.276295        -0.742380
 H         3.226677        -1.520535         0.710650
 H         4.146800         0.832666         1.719296
 H         3.180323         2.222814         1.184943
