19
Iteration:  1699
 C         0.110400        -0.812325         0.630690
 C         1.486774        -0.192020         0.168779
 C         1.922719         0.441557        -1.176302
 C         3.333405         0.449841        -0.396470
 C         4.475418        -0.334646        -0.985236
 O         3.759371        -1.575308        -0.570861
 C         2.920697        -0.816546         0.342526
 C         3.020752         1.641554         0.458569
 O         1.716976         1.052747         1.088710
 H         0.288247        -1.750756         1.224194
 H        -0.536926        -0.106555         1.148182
 H        -0.430698        -1.152180        -0.241340
 H         1.966271        -0.209965        -2.102714
 H         1.516259         1.436199        -1.421280
 H         4.504943        -0.223267        -2.083511
 H         5.468841        -0.241446        -0.440304
 H         3.072634        -1.218707         1.385665
 H         3.529534         1.937803         1.455939
 H         2.917518         2.540341        -0.152677
