19
Iteration:  3404charge 0 multiplicity 1
 C         0.017152        -0.685870         0.506044
 C         1.478439        -0.145142         0.262194
 C         1.855193         0.958325        -0.761474
 C         3.321332         0.553953        -0.332326
 C         4.299727         0.011161        -1.279415
 O         3.455877        -1.271141        -1.408820
 C         2.780741        -0.910531        -0.130433
 C         3.374903         0.981783         1.151181
 O         2.105601         0.412262         1.567192
 H        -0.572080        -0.324892        -0.396593
 H        -0.108593        -1.807053         0.567465
 H        -0.546293        -0.150682         1.348092
 H         1.681260         0.634804        -1.743537
 H         1.599571         2.026985        -0.431791
 H         4.398672         0.635700        -2.176806
 H         5.359226        -0.168430        -0.973660
 H         3.148552        -1.474190         0.762755
 H         4.243642         0.434624         1.702568
 H         3.441523         1.940350         1.372501
