19
Iteration:  2794charge 0 multiplicity 1
 C         0.137995        -0.702773         0.460805
 C         1.442369        -0.077907         0.337503
 C         1.878341         0.761202        -0.841429
 C         3.309405         0.481868        -0.271476
 C         4.349349        -0.121332        -1.243771
 O         3.555027        -1.397321        -1.247458
 C         2.866443        -0.981741         0.003946
 C         3.196587         1.284563         0.970421
 O         1.975456         0.667176         1.471306
 H        -0.142621        -1.238817        -0.481119
 H         0.042293        -1.442697         1.275148
 H        -0.574722         0.151977         0.565673
 H         1.709270         0.203006        -1.720779
 H         1.518422         1.727843        -0.940145
 H         4.534651         0.253131        -2.232401
 H         5.257259        -0.331179        -0.717622
 H         3.110263        -1.666236         0.768578
 H         3.967146         1.097967         1.700723
 H         3.083941         2.376311         0.770903
