19
Iteration:   124charge 0 multiplicity 1
 C         0.208382        -0.883364         0.759081
 C         1.413663        -0.175397         0.104658
 C         2.132254        -0.670431        -1.131537
 C         3.301303         0.286075        -0.668919
 C         4.667502        -0.305598        -0.310566
 O         3.979198        -1.221969         0.719629
 C         2.856560        -0.127902         0.789977
 C         2.703134         1.665717        -0.690110
 O         1.420404         1.257845        -0.079785
 H         0.581609        -1.870845         1.000959
 H        -0.010311        -0.437712         1.735888
 H        -0.727441        -0.908875         0.218126
 H         2.487836        -1.693821        -0.923945
 H         1.658468        -0.642652        -2.106538
 H         5.231590        -0.880745        -0.987427
 H         5.321948         0.436360         0.217323
 H         3.019514         0.590729         1.655090
 H         3.292992         2.382855        -0.083349
 H         2.508087         2.182302        -1.626729
