19
Iteration:   518
 C         0.158945        -0.720757         0.708899
 C         1.534889        -0.295984         0.168714
 C         2.182052        -0.375194        -1.292593
 C         3.275723         0.400359        -0.622634
 C         4.647890        -0.442875        -0.493805
 O         3.887035        -1.310542         0.446985
 C         2.979003        -0.329209         0.716955
 C         2.670525         1.756667        -0.366808
 O         1.410042         1.150436         0.276212
 H         0.294751        -1.696112         1.254255
 H        -0.218633         0.124887         1.323678
 H        -0.548495        -0.975868        -0.131012
 H         2.652937        -1.391710        -1.412068
 H         1.622709         0.126474        -2.141797
 H         4.960953        -0.971619        -1.391121
 H         5.547185         0.041218        -0.071496
 H         3.190772         0.120995         1.724663
 H         3.224128         2.295716         0.348172
 H         2.284609         2.164733        -1.323544
