19
Iteration:  4546
 C         0.175757        -0.746948         0.411689
 C         1.493253        -0.101481         0.320351
 C         1.938106         1.044189        -0.686557
 C         3.402075         0.530597        -0.188713
 C         4.246999        -0.044076        -1.329649
 O         3.165076        -1.045266        -1.587244
 C         2.767205        -0.870821        -0.262912
 C         3.478176         0.839157         1.290431
 O         2.076413         0.344417         1.637422
 H        -0.299561        -0.666841        -0.641195
 H         0.295031        -1.851346         0.716004
 H        -0.461226        -0.193620         1.126707
 H         1.671364         0.758688        -1.612665
 H         1.645198         2.010901        -0.383677
 H         4.553303         0.575915        -2.201591
 H         5.149317        -0.483808        -0.859269
 H         3.153175        -1.780712         0.439059
 H         4.151840         0.286343         1.919036
 H         3.408724         1.930467         1.591224
