19
Iteration:  3283
 C         0.070704        -0.707641         0.521440
 C         1.460405        -0.151903         0.239122
 C         1.902891         0.977212        -0.791793
 C         3.364786         0.517833        -0.264387
 C         4.314121        -0.077803        -1.349067
 O         3.423084        -1.233660        -1.329480
 C         2.821037        -0.883797        -0.082017
 C         3.293529         1.051443         1.136060
 O         2.049971         0.413701         1.522700
 H        -0.174721        -0.325495         1.558659
 H        -0.534985        -0.320220        -0.366040
 H        -0.037204        -1.905685         0.439012
 H         1.742037         0.715915        -1.790030
 H         1.645094         2.002135        -0.525455
 H         4.299058         0.336997        -2.341957
 H         5.327302        -0.332657        -1.064197
 H         3.143494        -1.562064         0.744498
 H         4.205427         0.732966         1.846120
 H         3.242068         2.244333         1.053656
