19
Iteration:   910
 C         0.210221        -0.792452         0.613511
 C         1.545352        -0.201058         0.181953
 C         1.956413        -0.202855        -1.229805
 C         3.307366         0.450191        -0.460368
 C         4.524016        -0.433928        -0.712248
 O         3.854565        -1.559189         0.002613
 C         2.976456        -0.502112         0.708941
 C         2.833416         1.797302         0.016738
 O         1.524231         1.264583         0.481054
 H        -0.270867        -0.414333         1.556489
 H        -0.460722        -0.581055        -0.314691
 H         0.404542        -1.868151         0.684815
 H         2.401293        -1.045218        -1.715257
 H         1.369324         0.441817        -2.000151
 H         4.815834        -0.633150        -1.734372
 H         5.362304        -0.064032        -0.068724
 H         3.192973        -0.277163         1.748690
 H         3.383826         2.288343         0.979524
 H         2.656671         2.671904        -0.729190
