19
Iteration:  2296
 C         0.276163        -0.764709         0.502788
 C         1.559672        -0.083414         0.204885
 C         1.968010         0.585095        -1.086413
 C         3.317494         0.597833        -0.373791
 C         4.321503        -0.281331        -1.156869
 O         3.433972        -1.455136        -0.961255
 C         2.893975        -0.802188         0.192783
 C         3.125455         1.394913         0.921306
 O         1.850722         0.759473         1.329124
 H        -0.369306        -0.132024         1.172221
 H        -0.261105        -0.890649        -0.504168
 H         0.451179        -1.742877         0.994925
 H         1.915513         0.020728        -2.038030
 H         1.534173         1.582816        -1.244750
 H         4.515538        -0.070131        -2.263206
 H         5.244598        -0.577146        -0.585406
 H         3.171014        -1.140057         1.148382
 H         3.928489         1.054250         1.741984
 H         2.919542         2.451415         0.798887
