19
Iteration:  3850charge 0 multiplicity 1
 C         0.009859        -0.652633         0.530439
 C         1.498200        -0.178324         0.239935
 C         1.853815         1.027855        -0.676537
 C         3.390268         0.601129        -0.207648
 C         4.271282         0.061385        -1.464530
 O         3.351735        -1.113084        -1.563439
 C         2.812470        -0.834582        -0.192411
 C         3.465216         0.725760         1.351372
 O         2.079160         0.285756         1.589731
 H        -0.152432        -1.620413         0.127281
 H        -0.290516        -0.567131         1.620834
 H        -0.571544         0.164615         0.061961
 H         1.661691         0.930459        -1.812782
 H         1.451175         2.064209        -0.324396
 H         4.241486         0.740718        -2.330256
 H         5.344887        -0.250685        -1.173263
 H         3.146913        -1.642102         0.446308
 H         4.243795        -0.112638         1.693892
 H         3.573898         1.695321         1.853650
