19
Iteration:  3926
 C         0.172636        -0.698766         0.376046
 C         1.599808        -0.188936         0.368583
 C         1.941576         1.011111        -0.658745
 C         3.392189         0.614933        -0.223188
 C         4.236734        -0.044861        -1.353024
 O         3.152629        -1.039532        -1.571746
 C         2.807369        -0.901822        -0.178116
 C         3.399297         0.913294         1.277750
 O         2.051432         0.266001         1.578821
 H        -0.105033        -0.740991        -0.587675
 H        -0.061161        -1.612188         0.921082
 H        -0.272585         0.096246         0.941008
 H         1.605958         0.611805        -1.797128
 H         1.649970         2.132908        -0.252571
 H         4.418365         0.537691        -2.263816
 H         5.161629        -0.509080        -0.975538
 H         3.229752        -1.666010         0.534557
 H         4.179742         0.327080         1.927209
 H         3.482211         1.914774         1.679271
