19
Iteration:  3338charge 0 multiplicity 1
 C         0.102058        -0.803669         0.411510
 C         1.463114        -0.155729         0.288583
 C         2.003965         0.870546        -0.697576
 C         3.403818         0.500752        -0.218965
 C         4.303259        -0.033835        -1.318747
 O         3.279898        -1.177459        -1.444210
 C         2.784180        -0.957273        -0.009550
 C         3.393629         1.082229         1.139048
 O         2.003457         0.578542         1.489652
 H        -0.774299        -0.154698         0.792184
 H        -0.169320        -1.273379        -0.624805
 H         0.387326        -1.550165         1.285216
 H         1.749864         0.733947        -1.718133
 H         1.698545         1.881029        -0.329135
 H         4.280427         0.452059        -2.274691
 H         5.337116        -0.369253        -1.202096
 H         3.132385        -1.775226         0.669484
 H         4.183434         0.635305         1.885580
 H         3.343695         2.147143         1.212571
