19
Iteration:  1393charge 0 multiplicity 1
 C         0.116146        -0.901701         0.610358
 C         1.448508        -0.119905         0.204211
 C         1.991785         0.237564        -1.251860
 C         3.328412         0.505402        -0.424875
 C         4.515585        -0.397944        -0.886878
 O         3.826760        -1.596371        -0.344611
 C         2.871619        -0.668870         0.452022
 C         2.977001         1.663472         0.337258
 O         1.650787         1.134315         0.890114
 H        -0.264138        -1.204781        -0.361172
 H        -0.031506        -1.628202         1.428331
 H        -0.505736        -0.060274         0.939638
 H         2.007819        -0.620296        -1.882673
 H         1.508823         1.104713        -1.840212
 H         4.718327        -0.505996        -1.922351
 H         5.406346        -0.064259        -0.340194
 H         3.287986        -0.872371         1.481049
 H         3.510492         2.000344         1.122511
 H         2.890683         2.609926        -0.264106
