19
Iteration:   227charge 0 multiplicity 1
 C         0.236601        -0.824002         0.773862
 C         1.536642        -0.248574         0.175426
 C         2.096948        -0.610199        -1.257874
 C         3.327428         0.310753        -0.724875
 C         4.699665        -0.408025        -0.226632
 O         3.962525        -1.197506         0.605762
 C         2.905411        -0.164438         0.762797
 C         2.608188         1.682100        -0.631552
 O         1.384094         1.259606         0.056635
 H        -0.588689        -0.231109         0.359851
 H         0.093802        -1.821446         0.328832
 H         0.112609        -0.843504         1.873369
 H         2.402135        -1.674510        -1.352340
 H         1.462985        -0.297272        -2.117227
 H         5.249882        -1.038693        -0.999075
 H         5.416183         0.248858         0.234610
 H         3.085009         0.545141         1.641823
 H         3.105157         2.274578         0.222498
 H         2.339968         2.192782        -1.672197
