19
Iteration:  1120charge 0 multiplicity 1
 C         0.112588        -0.772004         0.589937
 C         1.491674        -0.295693         0.224073
 C         2.021117        -0.053217        -1.226174
 C         3.347347         0.486533        -0.520662
 C         4.573640        -0.367333        -0.805903
 O         3.795565        -1.604830        -0.120940
 C         2.996964        -0.520811         0.497561
 C         2.878024         1.759813         0.246213
 O         1.540205         1.222920         0.682767
 H        -0.436205        -0.065929         1.210894
 H        -0.514697        -0.863821        -0.292488
 H         0.061063        -1.749988         1.172803
 H         2.388614        -0.995321        -1.774912
 H         1.573767         0.568321        -1.956143
 H         4.744700        -0.718793        -1.772513
 H         5.376563        -0.104675        -0.178314
 H         3.458429        -0.506436         1.453411
 H         3.438935         2.283755         1.040638
 H         2.635316         2.601512        -0.382330
