19
Iteration:   596charge 0 multiplicity 1
 C         0.236234        -0.829072         0.718815
 C         1.556006        -0.263031         0.114734
 C         2.180424        -0.378761        -1.203438
 C         3.344798         0.479263        -0.535958
 C         4.544929        -0.494677        -0.555145
 O         3.850821        -1.369072         0.350121
 C         2.954375        -0.361623         0.706367
 C         2.679622         1.772310        -0.321652
 O         1.419088         1.286371         0.312645
 H        -0.412590         0.045408         0.863301
 H        -0.177719        -1.399117        -0.217750
 H         0.289346        -1.545660         1.550314
 H         2.455413        -1.360438        -1.586685
 H         1.574375        -0.165061        -2.137919
 H         4.839580        -0.978832        -1.481096
 H         5.316770         0.012675         0.010272
 H         3.199030        -0.070286         1.794953
 H         3.092105         2.477414         0.350700
 H         2.701484         2.411360        -1.258230
