19
Iteration:  3060charge 0 multiplicity 1
 C         0.109101        -0.776307         0.433433
 C         1.514646        -0.167134         0.241037
 C         1.945685         0.798193        -0.838892
 C         3.373582         0.559405        -0.232204
 C         4.284520        -0.082735        -1.306755
 O         3.332403        -1.318287        -1.285011
 C         2.848986        -0.866917        -0.029844
 C         3.331542         1.152796         1.162810
 O         2.010815         0.613720         1.490823
 H        -0.509208        -0.602070        -0.455387
 H         0.084543        -1.876491         0.661192
 H        -0.428825        -0.133037         1.131298
 H         1.881006         0.252609        -1.788764
 H         1.520460         1.702702        -0.907123
 H         4.228768         0.371999        -2.306785
 H         5.300447        -0.333286        -1.101160
 H         3.292728        -1.378616         0.816817
 H         4.155664         0.721930         1.790914
 H         3.241061         2.316268         1.272380
