19
Iteration:  2451
 C         0.218355        -0.783499         0.477595
 C         1.601023        -0.125155         0.229750
 C         1.908818         0.600572        -1.060286
 C         3.303177         0.607365        -0.372504
 C         4.267339        -0.210831        -1.155974
 O         3.407814        -1.414370        -1.015055
 C         2.901185        -0.816067         0.179346
 C         3.223289         1.252053         0.965831
 O         1.885219         0.814046         1.308836
 H        -0.176744        -1.475403        -0.274771
 H         0.088397        -1.274561         1.544839
 H        -0.538004         0.070657         0.473565
 H         1.930892        -0.176318        -1.848524
 H         1.421808         1.472719        -1.417914
 H         4.663119         0.218060        -2.141436
 H         5.121283        -0.262956        -0.399823
 H         3.367008        -1.237747         1.003095
 H         4.141790         0.876617         1.595698
 H         3.363467         2.282823         1.158276
