19
Iteration:  4802
 C         0.124252        -0.615692         0.474449
 C         1.530905        -0.153763         0.318765
 C         1.928960         0.951993        -0.660540
 C         3.405139         0.494400        -0.155136
 C         4.237802         0.038434        -1.359381
 O         3.259512        -1.037305        -1.657742
 C         2.778325        -0.986043        -0.222897
 C         3.380293         0.887935         1.307942
 O         2.091660         0.298936         1.579997
 H        -0.345086        -0.766462        -0.512590
 H         0.143379        -1.585802         1.069381
 H        -0.589766         0.168703         0.972226
 H         1.820189         0.694717        -1.648466
 H         1.640351         1.952390        -0.458674
 H         4.475954         0.865859        -1.987231
 H         5.139469        -0.320267        -1.004233
 H         3.098960        -1.889299         0.470038
 H         4.144708         0.459934         2.000296
 H         3.378967         1.999229         1.453180
