19
Iteration:   270
 C         0.280107        -0.781030         0.778164
 C         1.478572        -0.220108         0.144054
 C         2.232413        -0.574624        -1.206172
 C         3.306494         0.365799        -0.524258
 C         4.598719        -0.425788        -0.411587
 O         3.967146        -1.259085         0.570156
 C         2.862786        -0.182312         0.842089
 C         2.621919         1.725077        -0.567967
 O         1.367436         1.230973        -0.037708
 H        -0.182545        -1.491486         0.075604
 H         0.518199        -1.374095         1.674763
 H        -0.500336        -0.030163         1.020467
 H         2.573549        -1.628124        -1.370273
 H         1.858484        -0.169117        -2.178532
 H         4.956339        -0.999681        -1.334739
 H         5.473267         0.118016        -0.065834
 H         2.926154         0.051337         1.976863
 H         3.259177         2.296086         0.183262
 H         2.343781         1.995452        -1.581399
