19
Iteration:  1729
 C         0.128014        -0.724496         0.498410
 C         1.502570        -0.210423         0.248923
 C         1.900517         0.203489        -1.186849
 C         3.283737         0.513504        -0.469959
 C         4.374718        -0.318150        -0.990070
 O         3.733793        -1.539279        -0.674942
 C         3.032170        -0.717363         0.420984
 C         3.070141         1.580592         0.631152
 O         1.703199         1.111828         1.099471
 H         0.023240        -1.112096         1.583758
 H        -0.569019         0.131597         0.273601
 H        -0.057287        -1.593501        -0.159766
 H         2.012502        -0.731206        -1.832557
 H         1.352654         0.953342        -1.644100
 H         4.608865        -0.208821        -2.061942
 H         5.271833        -0.197113        -0.420894
 H         3.387314        -0.960114         1.390956
 H         3.611670         1.232171         1.515006
 H         3.020945         2.586398         0.298214
