19
Iteration:  1815charge 0 multiplicity 1
 C         0.262453        -0.816048         0.563837
 C         1.499797        -0.175064         0.266081
 C         1.925793         0.315812        -1.245864
 C         3.287063         0.540239        -0.417749
 C         4.431450        -0.283180        -1.000521
 O         3.526589        -1.485679        -0.667497
 C         2.954782        -0.699016         0.359862
 C         3.137482         1.504068         0.644533
 O         1.717330         1.006534         1.058509
 H        -0.549070        -0.149279         0.122598
 H         0.284259        -1.824709         0.124469
 H         0.036213        -0.833921         1.656100
 H         2.099941        -0.536401        -2.024146
 H         1.353181         1.073648        -1.681549
 H         4.658587        -0.181545        -2.097371
 H         5.250977        -0.462140        -0.298396
 H         3.347690        -0.850257         1.386833
 H         3.722275         1.279167         1.539432
 H         3.057313         2.695764         0.536720
