19
Iteration:  4066
 C         0.098907        -0.710436         0.454273
 C         1.537736        -0.159929         0.199483
 C         1.959550         1.061388        -0.562242
 C         3.421608         0.585279        -0.170637
 C         4.196193        -0.000766        -1.433635
 O         3.245515        -1.045894        -1.544919
 C         2.800178        -0.846912        -0.150880
 C         3.427019         0.804261         1.326661
 O         2.025584         0.269405         1.500014
 H        -0.089944        -1.672080        -0.159592
 H         0.148672        -1.052551         1.556925
 H        -0.663650         0.109425         0.404494
 H         1.908473         0.853455        -1.693179
 H         1.763338         2.015669        -0.333302
 H         4.295162         0.686334        -2.380321
 H         5.237918        -0.357459        -1.196374
 H         3.212190        -1.689971         0.540962
 H         4.142860         0.107444         1.810322
 H         3.561628         1.806065         1.761489
