19
Iteration:  1879
 C         0.139566        -0.739293         0.517831
 C         1.510883        -0.188241         0.170234
 C         1.912159         0.481250        -1.138468
 C         3.266316         0.515422        -0.405437
 C         4.343718        -0.316998        -1.090693
 O         3.728599        -1.560148        -0.645899
 C         2.899797        -0.828896         0.329900
 C         3.016681         1.572010         0.640297
 O         1.833779         0.946573         1.172656
 H        -0.116290        -1.506656        -0.189239
 H         0.201252        -1.229099         1.478329
 H        -0.591775         0.034889         0.655436
 H         1.988540        -0.335948        -1.973195
 H         1.533589         1.443108        -1.439808
 H         4.631299        -0.298477        -2.193310
 H         5.311060        -0.206880        -0.485447
 H         3.359312        -1.019657         1.356789
 H         3.777561         1.551049         1.342613
 H         2.993851         2.619665         0.303706
