19
Iteration:  4700
 C         0.201930        -0.722475         0.391834
 C         1.560473        -0.218362         0.281739
 C         2.008260         1.031762        -0.615556
 C         3.409478         0.545291        -0.101161
 C         4.233899        -0.029340        -1.379762
 O         3.144170        -1.016311        -1.646683
 C         2.778701        -0.953285        -0.235935
 C         3.430453         0.877696         1.307316
 O         2.019306         0.392815         1.646812
 H        -0.093030        -1.409034        -0.474301
 H         0.018309        -1.435019         1.342404
 H        -0.583397         0.131248         0.649155
 H         1.773233         0.984633        -1.719768
 H         1.592172         1.961222        -0.390321
 H         4.391999         0.526101        -2.320637
 H         5.115064        -0.443767        -0.997643
 H         3.130830        -1.814930         0.433780
 H         4.202367         0.309240         1.785732
 H         3.508671         1.970412         1.461540
