19
Iteration:  3052
 C         0.093055        -0.769314         0.415313
 C         1.531313        -0.166066         0.332708
 C         1.959171         0.823444        -0.835699
 C         3.371356         0.534091        -0.252580
 C         4.265645        -0.153990        -1.323196
 O         3.396658        -1.275307        -1.325237
 C         2.854300        -0.921193        -0.013541
 C         3.341723         1.194720         1.137236
 O         1.955606         0.632108         1.492203
 H        -0.469817        -0.536556        -0.614453
 H         0.140927        -1.870359         0.624089
 H        -0.500490        -0.439342         1.423437
 H         1.825075         0.426254        -1.750138
 H         1.537875         1.853473        -0.851645
 H         4.123283         0.463120        -2.221093
 H         5.312437        -0.579481        -1.299499
 H         3.259502        -1.499625         0.858420
 H         3.955921         0.839262         1.991006
 H         3.337028         2.312129         1.204568
