19
Iteration:    95charge 0 multiplicity 1
 C         0.265975        -0.777069         0.722376
 C         1.533462        -0.263698         0.188225
 C         2.206449        -0.591907        -1.103163
 C         3.332272         0.310586        -0.551713
 C         4.697764        -0.337976        -0.390453
 O         3.987997        -1.228665         0.772995
 C         2.870460        -0.212470         0.893325
 C         2.587420         1.670786        -0.743234
 O         1.269906         1.260861        -0.200450
 H        -0.122782        -1.694988         0.161377
 H         0.464619        -1.142723         1.736331
 H        -0.474021         0.036821         0.807436
 H         2.582775        -1.620830        -1.116327
 H         1.594950        -0.341335        -2.019395
 H         4.997895        -1.060651        -1.231000
 H         5.511256         0.224537         0.044977
 H         2.861837         0.334479         1.868564
 H         3.181288         2.456188        -0.112480
 H         2.501370         1.915490        -1.911513
