19
Iteration:  3942charge 0 multiplicity 1
 C         0.157663        -0.706385         0.356703
 C         1.526237        -0.122954         0.247695
 C         1.893571         1.061508        -0.556669
 C         3.378176         0.512288        -0.199227
 C         4.194339         0.016013        -1.380172
 O         3.268104        -1.122401        -1.535549
 C         2.769451        -0.940416        -0.147290
 C         3.480579         0.882526         1.243134
 O         2.076051         0.356183         1.621520
 H        -0.302576        -0.657798        -0.761022
 H         0.272586        -1.794256         0.583728
 H        -0.613418        -0.245750         1.063561
 H         1.699047         1.058424        -1.526531
 H         1.582389         1.952575        -0.171740
 H         4.229338         0.592214        -2.329773
 H         5.229840        -0.416268        -1.153398
 H         3.079560        -1.791385         0.423761
 H         4.248718         0.334181         1.776014
 H         3.422165         1.972497         1.507257
