19
Iteration:  2948
 C         0.060321        -0.718666         0.534580
 C         1.459563        -0.176294         0.219451
 C         1.932721         0.813867        -0.811743
 C         3.440564         0.461862        -0.234469
 C         4.348047        -0.089202        -1.302317
 O         3.498944        -1.318209        -1.243461
 C         2.846690        -0.904637        -0.005112
 C         3.222737         1.197000         0.998033
 O         1.954521         0.613343         1.446711
 H        -0.256776        -0.239357         1.457532
 H        -0.696961        -0.446052        -0.276194
 H         0.073397        -1.798652         0.733108
 H         1.765448         0.598507        -1.892097
 H         1.643080         1.684879        -0.575052
 H         4.245193         0.422840        -2.262541
 H         5.368325        -0.337121        -1.112560
 H         2.949305        -1.690372         0.745609
 H         3.961783         0.897871         1.775119
 H         3.124699         2.351861         0.932462
