19
Iteration:   507charge 0 multiplicity 1
 C         0.221036        -0.733093         0.657706
 C         1.526196        -0.257775         0.131155
 C         2.116743        -0.476127        -1.221366
 C         3.361043         0.413092        -0.561691
 C         4.634789        -0.366043        -0.539003
 O         3.977830        -1.449005         0.458180
 C         2.980284        -0.311475         0.755065
 C         2.608291         1.713208        -0.341527
 O         1.359386         1.256296         0.225730
 H         0.042303        -1.759500         1.077029
 H        -0.046037        -0.048783         1.500004
 H        -0.540663        -0.449109        -0.124047
 H         2.308367        -1.510044        -1.646679
 H         1.547792         0.054473        -2.047374
 H         4.902463        -0.976489        -1.383756
 H         5.478123         0.161054        -0.058839
 H         3.179292         0.188432         1.738560
 H         3.110584         2.448784         0.232974
 H         2.399234         2.381128        -1.218676
