19
Iteration:  2797
 C         0.130670        -0.682649         0.458487
 C         1.468425        -0.082817         0.337689
 C         1.838755         0.754407        -0.820241
 C         3.312454         0.465081        -0.247061
 C         4.355943        -0.123630        -1.232589
 O         3.558287        -1.404559        -1.270880
 C         2.866523        -0.981381         0.011645
 C         3.185601         1.293049         0.972065
 O         1.979058         0.670628         1.452839
 H        -0.005369        -1.252107        -0.430074
 H         0.054687        -1.405043         1.332457
 H        -0.665029         0.084427         0.486999
 H         1.662999         0.136221        -1.854296
 H         1.516212         1.879067        -0.957731
 H         4.511962         0.311425        -2.265598
 H         5.321921        -0.298929        -0.684455
 H         3.114748        -1.674388         0.792415
 H         3.952501         1.090677         1.670117
 H         3.195869         2.341748         0.801457
