19
Iteration:  1573charge 0 multiplicity 1
 C         0.121407        -0.761509         0.576967
 C         1.485411        -0.211381         0.163638
 C         1.879172         0.248292        -1.263169
 C         3.307928         0.509279        -0.436321
 C         4.519565        -0.405832        -0.950941
 O         3.769897        -1.553872        -0.519132
 C         2.922813        -0.628547         0.412405
 C         2.994639         1.662690         0.456428
 O         1.707167         1.018374         1.067492
 H        -0.714936        -0.247694         0.075044
 H         0.045426        -1.848630         0.318886
 H         0.086694        -0.528608         1.707478
 H         2.117923        -0.505414        -1.944407
 H         1.260068         1.106755        -1.622267
 H         4.912713        -0.549621        -1.990911
 H         5.424960        -0.336083        -0.352376
 H         3.200689        -0.742263         1.427787
 H         3.726317         1.696567         1.407650
 H         2.692831         2.747878         0.256514
