19
Iteration:   311
 C         0.254229        -0.826917         0.650658
 C         1.493696        -0.141142         0.174159
 C         2.114446        -0.589198        -1.127903
 C         3.308754         0.276035        -0.637625
 C         4.601383        -0.436383        -0.471775
 O         4.017888        -1.254136         0.578809
 C         2.901058        -0.204795         0.836399
 C         2.676511         1.711561        -0.529590
 O         1.382537         1.266070         0.077591
 H         0.462252        -1.913770         0.990593
 H        -0.300038        -0.301051         1.434341
 H        -0.428142        -0.839457        -0.251550
 H         2.216808        -1.691854        -1.213530
 H         1.595432        -0.126388        -2.017680
 H         5.166021        -0.961862        -1.275974
 H         5.345139         0.296852        -0.007912
 H         3.027484         0.516540         1.709348
 H         3.117362         2.278538         0.381471
 H         2.347205         2.279364        -1.409869
