19
Iteration:  1301
 C         0.151207        -0.804406         0.594146
 C         1.499418        -0.150225         0.176438
 C         2.017255         0.107677        -1.265201
 C         3.252670         0.447518        -0.429926
 C         4.504654        -0.362039        -0.825597
 O         3.799874        -1.564264        -0.312570
 C         2.930168        -0.724187         0.540397
 C         2.989490         1.755421         0.276415
 O         1.574613         1.156120         0.820794
 H        -0.102261        -0.338707         1.518264
 H        -0.667652        -0.618199        -0.083852
 H         0.403486        -1.840228         0.590847
 H         2.277765        -0.740596        -2.008387
 H         1.469894         0.882735        -1.728730
 H         4.682262        -0.674145        -1.886079
 H         5.379034        -0.237395        -0.241781
 H         3.189583        -0.734224         1.601417
 H         3.560450         2.105440         1.153645
 H         2.830836         2.673433        -0.277780
