19
Iteration:  2856
 C         0.254741        -0.779123         0.551920
 C         1.512405        -0.054292         0.183440
 C         1.877026         0.838035        -0.983705
 C         3.362927         0.492371        -0.222035
 C         4.298847        -0.204166        -1.302096
 O         3.451147        -1.365040        -1.213054
 C         2.840316        -0.813782         0.036030
 C         3.221570         1.223849         1.113989
 O         1.898089         0.599615         1.446994
 H         0.288220        -1.898688         0.708534
 H        -0.237872        -0.255493         1.286933
 H        -0.347240        -0.629538        -0.345044
 H         1.981122         0.374015        -1.928975
 H         1.476864         1.946345        -0.952580
 H         4.415454         0.287876        -2.281262
 H         5.341429        -0.447490        -0.911200
 H         2.991037        -1.534256         0.939142
 H         3.986817         0.834869         1.859254
 H         3.254672         2.310479         0.912217
