19
Iteration:   986charge 0 multiplicity 1
 C         0.156246        -0.788437         0.634943
 C         1.494843        -0.191695         0.141343
 C         2.039624        -0.072296        -1.300292
 C         3.295485         0.419636        -0.500740
 C         4.553903        -0.424712        -0.710235
 O         3.840373        -1.536353        -0.038232
 C         2.978328        -0.532365         0.658028
 C         2.860534         1.766848         0.069720
 O         1.544504         1.182410         0.596125
 H        -0.432463        -1.165191        -0.248956
 H         0.428803        -1.604526         1.393960
 H        -0.398860        -0.001320         1.168056
 H         2.098483        -0.960222        -1.895468
 H         1.303889         0.634153        -1.807196
 H         4.833276        -0.685087        -1.710462
 H         5.393939        -0.074981        -0.086137
 H         3.405284        -0.348305         1.662436
 H         3.303599         2.332987         0.938951
 H         2.516171         2.595821        -0.685392
