19
Iteration:  1712
 C         0.179275        -0.748433         0.551158
 C         1.467928        -0.139057         0.283358
 C         1.901088         0.322318        -1.089128
 C         3.291819         0.464367        -0.397174
 C         4.492663        -0.245157        -1.021630
 O         3.749444        -1.565811        -0.618441
 C         2.867616        -0.864897         0.382114
 C         3.023160         1.552211         0.557416
 O         1.727769         1.070413         0.969692
 H         0.200036        -1.477954         1.338754
 H        -0.564392        -0.019281         0.810892
 H        -0.086622        -1.188841        -0.403682
 H         1.804223        -0.475874        -1.802574
 H         1.364150         1.285415        -1.460440
 H         4.723334        -0.298685        -2.098715
 H         5.514872        -0.149234        -0.496486
 H         3.305668        -0.930633         1.446549
 H         3.849188         1.650679         1.283448
 H         2.727895         2.614414         0.134931
