19
Iteration:  1974charge 0 multiplicity 1
 C         0.145315        -0.831483         0.563274
 C         1.531933        -0.202186         0.213202
 C         1.972610         0.501245        -1.235963
 C         3.346665         0.552255        -0.449698
 C         4.409072        -0.350304        -1.063285
 O         3.545176        -1.519953        -0.769277
 C         2.938364        -0.682533         0.330361
 C         3.091996         1.555821         0.657455
 O         1.781715         0.903658         1.275570
 H         0.080644        -1.258186         1.564789
 H        -0.659747        -0.041290         0.371678
 H        -0.140428        -1.625022        -0.223466
 H         1.958518        -0.378671        -1.909563
 H         1.573803         1.439379        -1.570847
 H         4.613706        -0.195115        -2.095824
 H         5.322373        -0.464258        -0.467908
 H         3.257630        -0.917320         1.336871
 H         3.785002         1.331687         1.614886
 H         2.901946         2.637220         0.659195
