19
Iteration:  1215
 C         0.207677        -0.827000         0.533881
 C         1.556819        -0.189767         0.185641
 C         2.024320         0.099359        -1.225393
 C         3.289400         0.523264        -0.493918
 C         4.453117        -0.465675        -0.822399
 O         3.770221        -1.580357        -0.204822
 C         3.030980        -0.638274         0.622262
 C         2.861473         1.754422         0.258743
 O         1.603197         1.201455         0.726942
 H        -0.094210        -1.682193        -0.076816
 H         0.127688        -1.181126         1.583348
 H        -0.676194        -0.110469         0.479834
 H         2.174002        -0.883088        -1.864872
 H         1.483028         0.813516        -1.799124
 H         4.538374        -0.716115        -1.913124
 H         5.417853        -0.156617        -0.265101
 H         3.082773        -0.700090         1.764743
 H         3.520617         2.115888         1.014386
 H         2.525965         2.674266        -0.412683
