19
Iteration:   221
 C         0.236859        -0.808634         0.737106
 C         1.532613        -0.204414         0.234815
 C         2.105606        -0.630450        -1.215082
 C         3.351081         0.297091        -0.709450
 C         4.649465        -0.366644        -0.290913
 O         3.919132        -1.178122         0.626875
 C         2.950062        -0.203671         0.749682
 C         2.664235         1.685275        -0.609648
 O         1.357388         1.215192         0.024995
 H        -0.613455        -0.137157         0.520606
 H         0.066636        -1.727491         0.131762
 H         0.154575        -1.068035         1.800081
 H         2.402558        -1.668235        -1.302330
 H         1.522147        -0.393992        -2.093290
 H         5.187608        -0.918545        -1.016095
 H         5.367625         0.365729         0.232208
 H         3.217903         0.489005         1.507898
 H         3.152466         2.275029         0.089824
 H         2.391845         2.167180        -1.485588
