19
Iteration:  3599
 C         0.165052        -0.671450         0.442072
 C         1.532894        -0.140942         0.301262
 C         1.893735         0.972229        -0.699415
 C         3.382800         0.549866        -0.213765
 C         4.275332        -0.030233        -1.358800
 O         3.250340        -1.092423        -1.599919
 C         2.814954        -0.906047        -0.149443
 C         3.338149         0.960785         1.281154
 O         2.099291         0.287991         1.606959
 H        -0.294899        -0.262300         1.363460
 H        -0.593525        -0.225776        -0.292375
 H         0.202113        -1.793071         0.233901
 H         1.797890         0.634892        -1.668357
 H         1.489307         2.021185        -0.405050
 H         4.561828         0.578203        -2.176084
 H         5.101108        -0.515104        -0.824418
 H         3.114075        -1.680413         0.573943
 H         4.046616         0.442388         1.853266
 H         3.301658         2.034116         1.543045
