19
Iteration:  3589
 C         0.113578        -0.622563         0.410845
 C         1.569936        -0.179757         0.294506
 C         1.926397         0.947190        -0.694009
 C         3.304500         0.469827        -0.225430
 C         4.256627        -0.008820        -1.296010
 O         3.305674        -1.058007        -1.631705
 C         2.781084        -0.991171        -0.108789
 C         3.370203         0.998473         1.239993
 O         2.091326         0.314378         1.630259
 H        -0.222129        -0.615337         1.482840
 H        -0.471234        -0.073858        -0.295923
 H        -0.054814        -1.725189         0.262062
 H         1.522637         0.866948        -1.673778
 H         1.596014         2.011388        -0.234402
 H         4.461370         0.590672        -2.147547
 H         5.259027        -0.351913        -0.941190
 H         3.225502        -1.786375         0.516299
 H         4.314208         0.644159         1.711364
 H         3.304031         2.150682         1.441340
