19
Iteration:   751
 C         0.230329        -0.844496         0.651189
 C         1.478109        -0.156645         0.143729
 C         2.018136        -0.355945        -1.296096
 C         3.269196         0.399753        -0.583424
 C         4.582438        -0.433635        -0.536848
 O         3.882949        -1.452445         0.195745
 C         2.920791        -0.375734         0.588299
 C         2.796126         1.738598        -0.102942
 O         1.505514         1.352409         0.462801
 H        -0.331982        -0.349180         1.464964
 H        -0.475571        -1.050692        -0.168685
 H         0.563680        -1.846926         0.983231
 H         2.410382        -1.351841        -1.473623
 H         1.438262         0.034894        -2.083772
 H         4.890696        -0.872407        -1.493905
 H         5.402467         0.017781        -0.034066
 H         3.117420        -0.064729         1.644281
 H         3.479204         1.976088         0.678416
 H         2.899650         2.643767        -0.849229
