19
Iteration:  4581
 C         0.112821        -0.638713         0.479761
 C         1.562587        -0.141695         0.248502
 C         1.955003         0.978619        -0.590533
 C         3.452156         0.450234        -0.204714
 C         4.265759        -0.000897        -1.373733
 O         3.236618        -1.039071        -1.563735
 C         2.775708        -0.927532        -0.266771
 C         3.418251         0.981318         1.294899
 O         2.030992         0.249922         1.586726
 H        -0.589827        -0.557969        -0.348424
 H         0.050855        -1.726032         0.742513
 H        -0.390079        -0.152413         1.354409
 H         1.685992         0.988279        -1.724588
 H         1.626943         1.953719        -0.300001
 H         4.365901         0.594106        -2.356566
 H         5.217375        -0.567640        -1.040592
 H         2.992259        -1.962229         0.302510
 H         4.189822         0.678347         2.043762
 H         3.218138         2.135102         1.461647
