19
Iteration:  1103
 C         0.113685        -0.812590         0.551280
 C         1.497111        -0.164037         0.166127
 C         2.004838        -0.109069        -1.234920
 C         3.266970         0.420915        -0.471033
 C         4.504763        -0.373375        -0.790291
 O         3.864009        -1.511379        -0.139087
 C         2.965177        -0.629717         0.655127
 C         2.891366         1.744318         0.157133
 O         1.594209         1.266827         0.683691
 H        -0.136737        -0.435723         1.564406
 H        -0.610520        -0.552685        -0.256647
 H         0.230740        -1.870994         0.552255
 H         2.136781        -1.070358        -1.630271
 H         1.351251         0.556530        -1.920830
 H         4.755871        -0.359941        -1.927388
 H         5.484614        -0.066325        -0.266303
 H         3.145687        -0.520909         1.806087
 H         3.671677         1.831792         0.993279
 H         2.867895         2.673522        -0.458318
