19
Iteration:  1494charge 0 multiplicity 1
 C         0.281147        -0.795036         0.539819
 C         1.566828        -0.201127         0.132017
 C         1.983990         0.321154        -1.296277
 C         3.292412         0.532533        -0.507454
 C         4.408184        -0.417037        -0.914788
 O         3.711111        -1.624390        -0.410687
 C         2.923530        -0.644984         0.495733
 C         2.951962         1.670480         0.472931
 O         1.639068         1.062220         1.013175
 H         0.264230        -0.630208         1.676512
 H        -0.609458        -0.321490         0.053427
 H         0.245115        -1.855248         0.296977
 H         1.923562        -0.564528        -2.046589
 H         1.522070         1.221467        -1.654432
 H         4.583042        -0.667217        -1.955570
 H         5.321974        -0.317675        -0.336504
 H         3.209610        -0.712200         1.570656
 H         3.598799         1.815305         1.337466
 H         2.597319         2.616603        -0.076520
