19
Iteration:  2306charge 0 multiplicity 1
 C         0.214719        -0.762089         0.556185
 C         1.525666        -0.171146         0.136612
 C         2.009778         0.748747        -1.106305
 C         3.386357         0.571334        -0.274623
 C         4.263284        -0.284520        -1.190061
 O         3.470033        -1.498903        -0.939796
 C         2.880636        -0.813231         0.173889
 C         3.087782         1.413338         0.909393
 O         1.897476         0.732948         1.281777
 H        -0.490693        -0.032368         1.139121
 H        -0.349032        -1.268176        -0.314819
 H         0.394340        -1.624523         1.259806
 H         2.131404         0.041160        -1.890226
 H         1.453853         1.653315        -1.328101
 H         4.425667        -0.061749        -2.298737
 H         5.311171        -0.364641        -0.689598
 H         3.267949        -1.155817         1.081074
 H         3.820315         1.314863         1.880144
 H         2.890835         2.499941         0.788348
