19
Iteration:   831
 C         0.157526        -0.826022         0.613143
 C         1.510302        -0.159970         0.175347
 C         2.067828        -0.274564        -1.289863
 C         3.291933         0.393717        -0.560870
 C         4.520261        -0.418482        -0.621193
 O         3.897946        -1.508263         0.087629
 C         2.962544        -0.408314         0.703268
 C         2.852601         1.760686        -0.024376
 O         1.481280         1.283306         0.481833
 H        -0.078433        -1.698843        -0.051393
 H         0.165970        -1.198365         1.657741
 H        -0.718683        -0.106604         0.466214
 H         2.134141        -1.363438        -1.487808
 H         1.548641         0.376425        -1.982046
 H         4.797243        -0.603633        -1.656760
 H         5.419302        -0.067758        -0.097757
 H         3.282554         0.039141         1.658282
 H         3.564805         2.024635         0.836670
 H         2.616553         2.584259        -0.829009
