19
Iteration:   359charge 0 multiplicity 1
 C         0.196487        -0.749139         0.699732
 C         1.506834        -0.236571         0.157049
 C         2.152448        -0.474655        -1.223193
 C         3.347399         0.322868        -0.615593
 C         4.718662        -0.424785        -0.401288
 O         3.973970        -1.305363         0.559901
 C         2.954808        -0.257670         0.746522
 C         2.581443         1.727490        -0.555028
 O         1.334045         1.211090         0.170279
 H         0.247391        -0.596123         1.738603
 H        -0.620163        -0.093581         0.307571
 H        -0.066916        -1.770512         0.484181
 H         2.459900        -1.512460        -1.352152
 H         1.665941        -0.059476        -2.094582
 H         5.134498        -1.024717        -1.249270
 H         5.525378         0.159238         0.007126
 H         3.058071         0.215871         1.741490
 H         3.077794         2.393257         0.111179
 H         2.247516         2.100688        -1.499804
