19
Iteration:   464
 C         0.091529        -0.866607         0.667005
 C         1.487267        -0.247759         0.168048
 C         2.141159        -0.493850        -1.187047
 C         3.275935         0.326785        -0.551253
 C         4.650466        -0.381020        -0.533400
 O         3.942550        -1.334987         0.456813
 C         2.929022        -0.234458         0.760191
 C         2.731497         1.725846        -0.454316
 O         1.472731         1.306833         0.219810
 H        -0.383100        -1.581732        -0.105797
 H         0.335645        -1.571699         1.545318
 H        -0.656646        -0.110808         1.075712
 H         2.341342        -1.609977        -1.322957
 H         1.620436        -0.016710        -2.072950
 H         5.026057        -0.602730        -1.560311
 H         5.411257         0.112102         0.133308
 H         3.159352         0.227945         1.766139
 H         3.279810         2.437254         0.237426
 H         2.694334         2.415637        -1.378586
