19
Iteration:   141
 C         0.282588        -0.787888         0.740039
 C         1.535553        -0.290246         0.163809
 C         2.141486        -0.688570        -1.199120
 C         3.325830         0.290499        -0.720696
 C         4.658434        -0.367556        -0.290024
 O         3.905542        -1.124958         0.755748
 C         2.929397        -0.190034         0.718135
 C         2.639225         1.674405        -0.688490
 O         1.362174         1.257088         0.039105
 H         0.387350        -1.556640         1.527546
 H        -0.352288         0.055434         1.109447
 H        -0.235158        -1.181518        -0.173403
 H         2.474250        -1.730044        -1.290582
 H         1.547563        -0.360330        -2.067619
 H         5.177090        -1.061181        -1.032726
 H         5.320424         0.339268         0.219145
 H         2.882146         0.412520         1.602602
 H         3.151572         2.384074         0.001010
 H         2.367508         2.097580        -1.720188
