19
Iteration:  1373
 C         0.177033        -0.814519         0.470459
 C         1.512867        -0.142751         0.172255
 C         1.865450         0.148055        -1.199285
 C         3.247971         0.457782        -0.480918
 C         4.535338        -0.410936        -0.846894
 O         3.766490        -1.562820        -0.337639
 C         2.909754        -0.702582         0.498160
 C         2.995854         1.676539         0.372364
 O         1.670150         1.222857         0.888752
 H        -0.442493        -1.091826        -0.442842
 H         0.684897        -1.794471         0.783304
 H        -0.239848        -0.647441         1.465966
 H         1.887696        -0.794529        -1.778244
 H         1.418506         0.967563        -1.764417
 H         4.755797        -0.444355        -1.903120
 H         5.357685        -0.036269        -0.167974
 H         3.251256        -0.588311         1.555073
 H         3.764355         1.834016         1.149954
 H         2.797659         2.684662         0.018693
