19
Iteration:  1708
 C         0.166079        -0.758600         0.584479
 C         1.450584        -0.165054         0.263670
 C         1.906381         0.382176        -1.109948
 C         3.314101         0.449735        -0.401774
 C         4.509577        -0.246582        -1.009095
 O         3.745387        -1.566522        -0.598546
 C         2.876577        -0.881560         0.366385
 C         3.029723         1.598416         0.523023
 O         1.723607         1.069048         0.992923
 H         0.246499        -1.665378         1.299993
 H        -0.574543         0.014005         0.890036
 H        -0.105107        -1.155966        -0.401497
 H         1.817486        -0.444739        -1.898443
 H         1.424574         1.258635        -1.412545
 H         4.649613        -0.329750        -2.100663
 H         5.489824        -0.169680        -0.532940
 H         3.186179        -0.968894         1.397634
 H         3.791374         1.651593         1.406952
 H         2.691749         2.410141         0.007956
