19
Iteration:  2840
 C         0.132890        -0.712490         0.543267
 C         1.519764        -0.163437         0.195002
 C         2.010819         0.772728        -0.961117
 C         3.395768         0.631617        -0.326369
 C         4.303427        -0.155914        -1.240706
 O         3.392504        -1.345825        -1.221030
 C         2.886849        -0.874540         0.064043
 C         3.210150         1.188415         1.117578
 O         1.908008         0.612336         1.396140
 H         0.317079        -1.767516         0.666414
 H        -0.063664        -0.548709         1.675016
 H        -0.745765        -0.514131        -0.096325
 H         1.836731         0.194668        -1.990612
 H         1.559488         1.790794        -1.097109
 H         4.312759         0.210419        -2.294074
 H         5.295162        -0.420433        -0.885425
 H         3.375420        -1.310309         0.878286
 H         3.907922         0.817032         1.832418
 H         3.034473         2.226130         1.363577
