19
Iteration:  3630charge 0 multiplicity 1
 C         0.158735        -0.798389         0.493368
 C         1.467296        -0.086772         0.201113
 C         2.006047         1.120183        -0.717531
 C         3.386891         0.547590        -0.230003
 C         4.226247         0.007724        -1.388737
 O         3.266435        -1.121730        -1.508915
 C         2.780613        -0.873335        -0.092206
 C         3.408936         0.862384         1.254960
 O         2.014535         0.321575         1.574685
 H        -0.448540        -0.161382         1.173500
 H        -0.301495        -1.112945        -0.606700
 H         0.352226        -1.706728         1.209096
 H         1.865765         1.140601        -1.758268
 H         1.797423         2.104708        -0.375362
 H         4.384538         0.631946        -2.292547
 H         5.161443        -0.490734        -1.097330
 H         3.122247        -1.711826         0.524474
 H         3.995417         0.151746         1.768898
 H         3.507524         1.782527         1.701658
