19
Iteration:  3485charge 0 multiplicity 1
 C         0.161572        -0.772054         0.362348
 C         1.563134        -0.095742         0.345601
 C         1.919047         0.927192        -0.641881
 C         3.373973         0.488334        -0.261667
 C         4.351098        -0.055356        -1.296710
 O         3.189900        -1.152164        -1.574422
 C         2.802465        -0.918775        -0.150887
 C         3.336616         1.026592         1.226358
 O         2.058960         0.463206         1.612896
 H         0.256540        -1.881355         0.164749
 H        -0.309056        -0.758216         1.578622
 H        -0.479598        -0.198065        -0.312381
 H         1.723638         0.795336        -1.727782
 H         1.759066         1.903730        -0.482620
 H         4.546600         0.613566        -2.140579
 H         5.125158        -0.556942        -0.788458
 H         3.129663        -1.690671         0.560508
 H         4.098492         0.690536         1.835564
 H         3.224187         2.080194         1.251900
