19
Iteration:  4295
 C         0.118949        -0.658562         0.551389
 C         1.464235        -0.104631         0.223254
 C         1.899890         1.062760        -0.659988
 C         3.422575         0.543861        -0.187374
 C         4.257605        -0.018508        -1.386219
 O         3.331631        -1.049904        -1.570742
 C         2.832955        -0.818391        -0.210876
 C         3.378620         0.705841         1.285928
 O         2.012437         0.301084         1.571815
 H        -0.180024        -1.290302        -0.310762
 H         0.352919        -1.249854         1.452247
 H        -0.599611         0.131409         0.666994
 H         1.710680         0.806652        -1.832357
 H         1.354666         1.974961        -0.436097
 H         4.303534         0.645539        -2.276587
 H         5.253264        -0.350699        -1.203486
 H         3.339598        -1.776472         0.507136
 H         4.066650         0.020590         1.742987
 H         3.547477         1.699783         1.830495
