19
Iteration:   232charge 0 multiplicity 1
 C         0.238152        -0.831050         0.783344
 C         1.510960        -0.280873         0.117025
 C         2.104886        -0.595588        -1.260480
 C         3.290731         0.335599        -0.706499
 C         4.734893        -0.425687        -0.251280
 O         3.979275        -1.237315         0.630444
 C         2.900214        -0.133481         0.756479
 C         2.581050         1.679273        -0.638685
 O         1.398244         1.280443         0.072303
 H        -0.564028        -0.292752         0.250490
 H         0.130474        -1.928312         0.579284
 H         0.200166        -0.656805         1.865521
 H         2.381908        -1.631330        -1.364216
 H         1.525446        -0.168905        -2.070639
 H         5.250381        -1.059329        -0.931995
 H         5.450219         0.273775         0.307931
 H         2.929684         0.408819         1.671716
 H         3.092276         2.400364        -0.046591
 H         2.387790         2.184427        -1.532835
