19
Iteration:  1922
 C         0.097950        -0.797492         0.609138
 C         1.465875        -0.215788         0.191043
 C         1.991733         0.429550        -1.086258
 C         3.291187         0.481372        -0.379562
 C         4.391651        -0.312173        -1.032206
 O         3.643458        -1.492717        -0.825182
 C         2.968108        -0.784122         0.342904
 C         3.140863         1.511977         0.691799
 O         1.735105         1.048333         1.084213
 H         0.240608        -1.844287         0.714064
 H        -0.348973        -0.387994         1.506718
 H        -0.640805        -0.617174        -0.165773
 H         2.021186        -0.291300        -2.023827
 H         1.504316         1.363014        -1.346515
 H         4.637930        -0.229495        -2.119950
 H         5.387932        -0.275861        -0.542431
 H         3.419126        -1.166121         1.338156
 H         3.754082         1.477670         1.591023
 H         2.953436         2.505776         0.422081
