19
Iteration:  1821
 C         0.279884        -0.796885         0.590918
 C         1.571653        -0.192509         0.232683
 C         1.952696         0.282952        -1.233278
 C         3.321616         0.580872        -0.433221
 C         4.404993        -0.240794        -1.004401
 O         3.506550        -1.539384        -0.682466
 C         2.904288        -0.716496         0.359636
 C         3.087075         1.536813         0.672943
 O         1.715517         1.018452         1.075381
 H        -0.406300        -0.275743        -0.057170
 H         0.340281        -1.828696         0.231273
 H        -0.218248        -0.722104         1.561184
 H         1.954910        -0.543859        -1.873455
 H         1.475068         1.234537        -1.713010
 H         4.641956        -0.265926        -2.061036
 H         5.309469        -0.319980        -0.324126
 H         3.421883        -0.927085         1.329537
 H         3.751777         1.188193         1.487859
 H         3.058795         2.534243         0.473491
