19
Iteration:  2644
 C         0.070733        -0.756193         0.497591
 C         1.436214        -0.150284         0.214328
 C         1.876823         0.698121        -0.942706
 C         3.319636         0.442679        -0.303160
 C         4.286672        -0.123521        -1.210350
 O         3.630840        -1.472580        -1.111069
 C         2.876650        -0.942577         0.075429
 C         3.243922         1.268225         0.939408
 O         1.943120         0.871029         1.451860
 H        -0.414185        -0.476875         1.357835
 H        -0.573499        -0.487086        -0.356663
 H         0.168060        -1.821625         0.370967
 H         1.866349         0.372207        -2.101378
 H         1.482059         1.801693        -0.939581
 H         4.335701         0.340299        -2.236077
 H         5.323736        -0.043164        -0.753078
 H         3.113488        -1.552397         1.032766
 H         4.036390         1.017430         1.680497
 H         3.309859         2.411361         0.810696
