19
Iteration:  2721
 C         0.027220        -0.854687         0.471812
 C         1.445228        -0.095165         0.334510
 C         1.909801         0.742994        -0.884926
 C         3.395190         0.452737        -0.274161
 C         4.377836        -0.147333        -1.226602
 O         3.501028        -1.369915        -1.205434
 C         2.852403        -0.945932         0.088282
 C         3.268801         1.264907         0.991673
 O         1.926578         0.829660         1.359763
 H        -0.872865        -0.383988         0.307278
 H         0.053096        -1.673367        -0.281188
 H         0.041808        -1.207106         1.511119
 H         1.672846         0.116366        -1.924806
 H         1.629923         1.891946        -1.008799
 H         4.526047         0.331713        -2.261099
 H         5.407692        -0.356482        -0.765576
 H         3.381504        -1.345193         1.004904
 H         3.995232         1.122519         1.803936
 H         3.159799         2.318018         0.698713
