19
Iteration:  2605charge 0 multiplicity 1
 C         0.131502        -0.737667         0.499814
 C         1.545837        -0.179527         0.232170
 C         1.923651         0.656546        -1.061303
 C         3.429713         0.584746        -0.267661
 C         4.377914        -0.275155        -1.277411
 O         3.422033        -1.388861        -1.104748
 C         2.923196        -0.780884         0.123339
 C         3.126542         1.331496         1.033498
 O         1.866969         0.725988         1.416784
 H        -0.046732        -0.897486         1.638875
 H        -0.711645        -0.061422         0.122434
 H         0.049364        -1.782648         0.070366
 H         1.957665         0.185652        -1.956479
 H         1.481867         1.593710        -1.101858
 H         4.532460         0.053169        -2.304035
 H         5.293539        -0.790236        -0.979449
 H         3.440314        -1.225099         0.958390
 H         3.906428         1.117877         1.796982
 H         3.124679         2.398127         0.935320
