19
Iteration:   419charge 0 multiplicity 1
 C         0.278098        -0.889676         0.747234
 C         1.503799        -0.212512         0.126126
 C         2.132079        -0.413913        -1.300598
 C         3.290908         0.343350        -0.519390
 C         4.601434        -0.476357        -0.452468
 O         3.939657        -1.334350         0.550574
 C         2.924452        -0.249576         0.771393
 C         2.665970         1.725266        -0.485059
 O         1.399766         1.296487         0.136847
 H        -0.633845        -0.198626         0.516003
 H         0.108852        -1.883898         0.332006
 H         0.489860        -1.030776         1.856401
 H         2.487987        -1.441780        -1.587007
 H         1.653563         0.187861        -2.122349
 H         4.815782        -1.101951        -1.322531
 H         5.520576         0.108098        -0.152915
 H         3.007980         0.381060         1.675306
 H         3.108273         2.521808         0.168853
 H         2.402787         2.339654        -1.432502
