19
Iteration:   109charge 0 multiplicity 1
 C         0.261743        -0.854092         0.775694
 C         1.451706        -0.160715         0.135747
 C         2.207881        -0.717386        -1.146574
 C         3.262741         0.267731        -0.523910
 C         4.580306        -0.355247        -0.294315
 O         4.027006        -1.169542         0.682021
 C         2.928917        -0.189022         0.849402
 C         2.688474         1.594796        -0.699046
 O         1.297858         1.370360        -0.172594
 H         0.240509        -1.860410         0.338517
 H         0.318937        -0.838645         1.889146
 H        -0.710635        -0.433457         0.390386
 H         2.390151        -1.789224        -1.156725
 H         1.908460        -0.306491        -2.113075
 H         5.109663        -0.882211        -1.147318
 H         5.311476         0.369234         0.133803
 H         3.140323         0.378918         1.711799
 H         3.033506         2.360924        -0.103704
 H         2.628920         1.960151        -1.685723
