19
Iteration:  3482
 C         0.167029        -0.749971         0.383980
 C         1.582669        -0.091131         0.356008
 C         1.911733         0.908695        -0.690826
 C         3.397982         0.490200        -0.237618
 C         4.315256        -0.057624        -1.289492
 O         3.188042        -1.142422        -1.569167
 C         2.810510        -0.901093        -0.138269
 C         3.314522         1.034522         1.225360
 O         2.055561         0.441906         1.592689
 H         0.261281        -1.853956         0.140214
 H        -0.222932        -0.798367         1.404764
 H        -0.452984        -0.179293        -0.280399
 H         1.738295         0.702157        -1.715231
 H         1.664162         1.991517        -0.389481
 H         4.530537         0.610609        -2.164044
 H         5.188151        -0.650513        -0.844535
 H         3.129191        -1.756057         0.511790
 H         4.168708         0.656928         1.908014
 H         3.251489         2.060490         1.296204
