19
Iteration:  2064
 C         0.232621        -0.674608         0.479719
 C         1.571709        -0.206396         0.181652
 C         1.931386         0.477539        -1.155688
 C         3.281981         0.529113        -0.432081
 C         4.376036        -0.257413        -1.044180
 O         3.546213        -1.508052        -0.823706
 C         2.933095        -0.820251         0.235345
 C         3.005046         1.476776         0.782255
 O         1.831511         0.865618         1.312731
 H        -0.440527         0.212830         0.300800
 H        -0.021512        -1.576417        -0.062525
 H         0.224922        -0.950205         1.538107
 H         1.797544        -0.280182        -1.989339
 H         1.341796         1.361085        -1.397236
 H         4.788934        -0.113227        -2.032769
 H         5.189510        -0.336177        -0.338353
 H         3.448444        -1.150024         1.152582
 H         3.880054         1.508923         1.612620
 H         2.917619         2.481879         0.392578
