19
Iteration:  1333charge 0 multiplicity 1
 C         0.187526        -0.835579         0.558322
 C         1.473137        -0.154577         0.152544
 C         2.037861         0.211157        -1.243324
 C         3.366907         0.479065        -0.393739
 C         4.537853        -0.488591        -0.920140
 O         3.710296        -1.536398        -0.288553
 C         2.968536        -0.680743         0.532038
 C         2.880296         1.807189         0.347681
 O         1.588931         1.115211         0.819143
 H        -0.599471        -0.143201         0.924510
 H        -0.168429        -1.569394        -0.185355
 H         0.513605        -1.325072         1.485094
 H         2.126773        -0.715350        -1.943223
 H         1.512356         1.018763        -1.664034
 H         4.582339        -0.863302        -1.996475
 H         5.526412        -0.433361        -0.413524
 H         3.307640        -0.754639         1.567097
 H         3.526182         2.124193         1.296263
 H         2.612569         2.534296        -0.391139
