19
Iteration:  3764charge 0 multiplicity 1
 C         0.240980        -0.691691         0.473413
 C         1.543325        -0.162468         0.218595
 C         1.937168         1.038212        -0.696289
 C         3.347301         0.540946        -0.196533
 C         4.200482         0.032287        -1.322320
 O         3.213386        -1.038601        -1.567098
 C         2.784697        -0.838647        -0.229092
 C         3.375138         0.712528         1.324804
 O         2.098114         0.358893         1.595206
 H        -0.010136        -1.554089        -0.298399
 H         0.042607        -1.123684         1.583027
 H        -0.588014         0.173775         0.413134
 H         1.878194         0.798126        -1.666024
 H         1.551211         1.994866        -0.384493
 H         4.216961         0.587932        -2.241454
 H         5.181843        -0.426026        -1.030576
 H         3.076737        -1.696247         0.380935
 H         4.124812         0.018920         1.748884
 H         3.545325         1.708621         1.725174
