19
Iteration:   142charge 0 multiplicity 1
 C         0.286309        -0.786342         0.738670
 C         1.536491        -0.288808         0.163025
 C         2.145046        -0.689555        -1.208452
 C         3.319063         0.284896        -0.716138
 C         4.649946        -0.376085        -0.286301
 O         3.912760        -1.124003         0.751090
 C         2.936867        -0.180879         0.725179
 C         2.629756         1.678852        -0.682922
 O         1.362227         1.253212         0.040422
 H         0.368184        -1.512868         1.540508
 H        -0.367120         0.068952         1.069758
 H        -0.229823        -1.191162        -0.171784
 H         2.470120        -1.732439        -1.330555
 H         1.571091        -0.344765        -2.059415
 H         5.146245        -1.059505        -1.018196
 H         5.331713         0.334781         0.225853
 H         2.892938         0.422065         1.589533
 H         3.139727         2.376699        -0.061507
 H         2.389653         2.066239        -1.668025
