19
Iteration:  2371charge 0 multiplicity 1
 C         0.058251        -0.680175         0.458481
 C         1.521108        -0.239860         0.212529
 C         1.853354         0.485641        -1.028223
 C         3.294110         0.608731        -0.427856
 C         4.414673        -0.225608        -1.164522
 O         3.469770        -1.340223        -1.000261
 C         2.881748        -0.808476         0.215275
 C         3.244961         1.336535         0.935478
 O         1.950513         0.777394         1.385869
 H        -0.636599        -0.244526        -0.395087
 H         0.092439        -1.857587         0.399228
 H        -0.299041        -0.316250         1.467731
 H         2.096818        -0.206968        -1.769590
 H         1.337224         1.343000        -1.351155
 H         4.650135        -0.031261        -2.256402
 H         5.397158        -0.255930        -0.564295
 H         3.282099        -1.309500         1.097032
 H         4.087869         0.925838         1.626834
 H         3.201808         2.419695         0.727026
