19
Iteration:  1532
 C         0.215553        -0.829689         0.558601
 C         1.472714        -0.168764         0.177142
 C         1.962420         0.217465        -1.152830
 C         3.336595         0.482593        -0.379797
 C         4.464244        -0.396230        -0.975248
 O         3.734574        -1.602826        -0.556874
 C         2.914192        -0.775702         0.523186
 C         2.981155         1.697371         0.493896
 O         1.638761         1.200416         0.922591
 H        -0.374437        -0.100877         1.076102
 H        -0.375623        -1.117550        -0.322922
 H         0.348425        -1.728354         1.212329
 H         2.012123        -0.509061        -1.906966
 H         1.475793         1.115656        -1.602478
 H         4.663847        -0.138645        -2.054360
 H         5.396523        -0.231862        -0.371264
 H         3.252480        -1.007923         1.523976
 H         3.679457         2.051062         1.268308
 H         2.939131         2.563662        -0.047482
