19
Iteration:  4557charge 0 multiplicity 1
 C         0.128645        -0.747169         0.436841
 C         1.578283        -0.151497         0.300341
 C         1.977670         1.077797        -0.592834
 C         3.392360         0.465834        -0.222250
 C         4.250414        -0.065062        -1.307595
 O         3.184235        -1.018177        -1.666062
 C         2.782368        -0.868295        -0.164359
 C         3.352673         0.887947         1.261424
 O         2.095849         0.335563         1.611940
 H        -0.486691        -0.598147        -0.566709
 H         0.008573        -1.893112         0.640179
 H        -0.512919        -0.266481         1.208998
 H         1.863642         0.966227        -1.590453
 H         1.742247         2.073448        -0.371768
 H         4.525091         0.554808        -2.195549
 H         5.068425        -0.716865        -0.963422
 H         3.303325        -1.765900         0.532852
 H         4.185044         0.512614         1.829455
 H         3.424412         2.038415         1.355659
