19
Iteration:  2533
 C         0.088897        -0.702741         0.530359
 C         1.530875        -0.137861         0.301497
 C         1.901540         0.568280        -1.029570
 C         3.333586         0.611024        -0.386490
 C         4.378114        -0.227513        -1.209887
 O         3.496338        -1.409322        -1.067419
 C         2.946327        -0.814763         0.113040
 C         3.227057         1.205342         1.031678
 O         1.831876         0.817633         1.316226
 H         0.117170        -1.765671         0.671024
 H        -0.430677        -0.250725         1.315134
 H        -0.426385        -0.626026        -0.397218
 H         1.880396        -0.116770        -1.944979
 H         1.263001         1.577460        -1.221919
 H         4.403091         0.115172        -2.246439
 H         5.399712        -0.231179        -0.823850
 H         3.554182        -1.146811         1.054207
 H         3.989774         0.747718         1.669838
 H         3.274393         2.323813         1.295976
