19
Iteration:  4528
 C         0.192591        -0.714043         0.430145
 C         1.501593        -0.091659         0.257994
 C         1.951279         1.086312        -0.634400
 C         3.389676         0.585972        -0.240512
 C         4.189143         0.005051        -1.367411
 O         3.263126        -1.058482        -1.546367
 C         2.716452        -0.901247        -0.116089
 C         3.457963         0.757794         1.274298
 O         2.070255         0.320695         1.576639
 H        -0.269657        -1.034272        -0.427682
 H         0.350658        -1.585390         1.010088
 H        -0.656083        -0.146867         0.824456
 H         1.930289         0.604325        -1.801609
 H         1.538062         2.103029        -0.343785
 H         4.272520         0.667367        -2.292671
 H         5.253947        -0.365166        -1.149446
 H         2.862761        -1.654304         0.545297
 H         4.168418        -0.055476         1.594774
 H         3.583469         1.714828         1.861700
