19
Iteration:  4833
 C         0.117843        -0.800899         0.437640
 C         1.495177        -0.102973         0.249780
 C         1.985387         1.143049        -0.601494
 C         3.440531         0.574650        -0.209800
 C         4.204370        -0.017599        -1.401726
 O         3.205583        -1.095487        -1.555128
 C         2.779893        -0.852894        -0.162903
 C         3.386418         0.801556         1.304345
 O         2.083698         0.304686         1.539516
 H         0.034542        -1.447726        -0.472589
 H         0.319835        -1.412543         1.424885
 H        -0.694650         0.086723         0.559036
 H         1.848356         0.977630        -1.699938
 H         1.760052         2.081170        -0.146701
 H         4.418118         0.643235        -2.301949
 H         5.205060        -0.531413        -1.005332
 H         3.130681        -1.567983         0.580351
 H         4.112529         0.215300         1.830330
 H         3.469723         1.846087         1.640558
