19
Iteration:  2616
 C         0.155311        -0.718521         0.471966
 C         1.512484        -0.166167         0.246275
 C         1.837977         0.616992        -0.983969
 C         3.410034         0.547544        -0.309523
 C         4.364406        -0.216013        -1.261560
 O         3.438790        -1.356568        -1.104317
 C         2.974662        -0.875743         0.174617
 C         3.249247         1.274730         1.010411
 O         1.841936         0.788605         1.351729
 H        -0.199395        -0.635649         1.577033
 H        -0.539429        -0.137287        -0.214790
 H         0.126613        -1.779830         0.084053
 H         1.783222         0.134023        -1.874118
 H         1.371241         1.546677        -0.995079
 H         4.414350         0.106881        -2.292253
 H         5.320107        -0.241657        -0.753439
 H         3.234890        -1.448591         1.066616
 H         3.925394         0.828330         1.769757
 H         3.176936         2.341542         1.054822
