19
Iteration:  3921charge 0 multiplicity 1
 C         0.171911        -0.678495         0.409686
 C         1.595006        -0.204695         0.327131
 C         1.954632         0.986362        -0.665424
 C         3.400895         0.601040        -0.233164
 C         4.223660        -0.035470        -1.333962
 O         3.147210        -1.022796        -1.597015
 C         2.824604        -0.850448        -0.152106
 C         3.375729         0.887075         1.276870
 O         2.071405         0.260030         1.609901
 H        -0.166372        -0.847926        -0.714190
 H        -0.029862        -1.578537         1.013849
 H        -0.371863         0.179477         0.889871
 H         1.752984         0.713971        -1.630861
 H         1.658244         1.938463        -0.464741
 H         4.472115         0.450625        -2.303967
 H         5.090859        -0.609585        -0.963499
 H         3.324607        -1.619950         0.472379
 H         4.037918         0.342740         1.867519
 H         3.326996         1.947122         1.632763
