19
Iteration:   719
 C         0.290614        -0.829963         0.703576
 C         1.539068        -0.220530         0.139587
 C         2.085255        -0.189794        -1.280605
 C         3.317882         0.423741        -0.488657
 C         4.554716        -0.502692        -0.541443
 O         3.864352        -1.458972         0.214444
 C         2.922660        -0.418318         0.727017
 C         2.764687         1.801339        -0.244520
 O         1.437254         1.268957         0.344722
 H         0.521726        -1.315893         1.664068
 H        -0.561609        -0.165245         0.666263
 H         0.026479        -1.660581         0.020861
 H         2.279540        -1.114781        -1.764395
 H         1.446329         0.428673        -1.809688
 H         4.743004        -0.932917        -1.536074
 H         5.477915        -0.204667        -0.116827
 H         2.963791        -0.220122         1.815426
 H         3.159154         2.216136         0.624383
 H         2.574598         2.439490        -1.118818
