19
Iteration:   520
 C         0.151985        -0.730450         0.711343
 C         1.535495        -0.294730         0.173471
 C         2.191732        -0.365193        -1.296494
 C         3.273596         0.391945        -0.624622
 C         4.637356        -0.459020        -0.485723
 O         3.887632        -1.289881         0.438281
 C         2.967726        -0.329844         0.711735
 C         2.675316         1.758600        -0.377771
 O         1.423880         1.142699         0.283153
 H         0.335217        -1.657747         1.289265
 H        -0.267954         0.156767         1.342083
 H        -0.531432        -1.045798        -0.117560
 H         2.635026        -1.359380        -1.425336
 H         1.637898         0.095011        -2.164373
 H         4.973361        -0.970248        -1.436529
 H         5.536354         0.024612        -0.017622
 H         3.141586         0.142039         1.739388
 H         3.210479         2.311268         0.402506
 H         2.299766         2.195614        -1.323183
