19
Iteration:  3851
 C         0.011763        -0.650520         0.530548
 C         1.494288        -0.180895         0.237502
 C         1.847339         1.039331        -0.685902
 C         3.387649         0.593473        -0.205935
 C         4.275005         0.061012        -1.468394
 O         3.354680        -1.115987        -1.565490
 C         2.815152        -0.840689        -0.193922
 C         3.465066         0.727057         1.354445
 O         2.076168         0.287754         1.593311
 H        -0.151099        -1.674195         0.126891
 H        -0.285238        -0.559012         1.639293
 H        -0.600447         0.193330         0.085213
 H         1.662132         0.939824        -1.741907
 H         1.487345         2.042247        -0.323706
 H         4.240379         0.752587        -2.308943
 H         5.356127        -0.226704        -1.159420
 H         3.153559        -1.641428         0.433335
 H         4.237894        -0.090667         1.680922
 H         3.607226         1.702421         1.853557
