19
Iteration:  1537charge 0 multiplicity 1
 C         0.235088        -0.808328         0.558968
 C         1.487995        -0.161888         0.226631
 C         1.943380         0.235204        -1.163998
 C         3.299766         0.430576        -0.347015
 C         4.443716        -0.368378        -0.949121
 O         3.757400        -1.596938        -0.558470
 C         2.924348        -0.810315         0.478492
 C         2.998341         1.685765         0.453227
 O         1.633521         1.220992         0.926977
 H        -0.482958        -0.051277         0.990917
 H        -0.211975        -1.226592        -0.357790
 H         0.298706        -1.668238         1.194898
 H         2.170619        -0.489034        -2.062608
 H         1.389504         1.073891        -1.572978
 H         4.592973        -0.154804        -1.990068
 H         5.311316        -0.231272        -0.310811
 H         3.273767        -1.046627         1.531268
 H         3.719560         1.813738         1.292570
 H         2.846735         2.747096        -0.130217
