19
Iteration:  2337
 C         0.136543        -0.675798         0.549904
 C         1.463166        -0.143433         0.274736
 C         1.913401         0.705888        -0.953666
 C         3.368225         0.436262        -0.330482
 C         4.381549        -0.231280        -1.243371
 O         3.659361        -1.485389        -1.013525
 C         2.847586        -0.930376         0.143123
 C         3.122817         1.347145         0.868740
 O         1.801874         0.846854         1.299119
 H        -0.796819        -0.073723         0.151865
 H         0.155545        -1.665648         0.041603
 H         0.108969        -0.909275         1.641966
 H         1.807368         0.260929        -1.876730
 H         1.422685         1.691043        -1.016662
 H         4.485884         0.037976        -2.299389
 H         5.384252        -0.217118        -0.705132
 H         3.298144        -1.460926         1.000437
 H         3.892477         1.159761         1.653098
 H         3.217444         2.468403         0.692998
