19
Iteration:  1778
 C         0.201505        -0.809980         0.579063
 C         1.538283        -0.124197         0.198847
 C         1.928648         0.533991        -1.176970
 C         3.266260         0.422512        -0.388016
 C         4.428625        -0.349069        -1.037389
 O         3.758330        -1.652830        -0.579627
 C         2.886961        -0.866702         0.295438
 C         2.976972         1.664214         0.548838
 O         1.711901         1.022099         1.122579
 H        -0.375993        -0.198519         1.224612
 H        -0.372847        -1.074257        -0.299106
 H         0.381142        -1.709777         1.185362
 H         2.100270         0.045344        -2.088127
 H         1.498549         1.636249        -1.291848
 H         4.566981        -0.083130        -2.114913
 H         5.486345        -0.282022        -0.543457
 H         3.231284        -1.120164         1.383471
 H         3.728293         1.892560         1.289970
 H         2.661016         2.509794        -0.101265
