19
Iteration:  3702charge 0 multiplicity 1
 C         0.128910        -0.565383         0.469677
 C         1.589388        -0.187252         0.268197
 C         1.887506         0.971247        -0.646797
 C         3.387234         0.574114        -0.143347
 C         4.196244         0.001557        -1.364500
 O         3.297661        -1.111503        -1.596869
 C         2.813724        -0.902253        -0.163449
 C         3.379890         0.969631         1.274672
 O         2.087478         0.125832         1.561965
 H        -0.438914         0.041614        -0.219533
 H        -0.011297        -1.508232         0.350531
 H        -0.209751        -0.170032         1.338837
 H         1.830918         0.857889        -1.884964
 H         1.417157         1.960711        -0.429366
 H         4.304492         0.646435        -2.263141
 H         5.202755        -0.266026        -1.056105
 H         2.955538        -1.757242         0.537885
 H         4.214437         0.693367         1.966494
 H         3.135761         2.093774         1.437524
