19
Iteration:  1414charge 0 multiplicity 1
 C         0.185044        -0.682090         0.568908
 C         1.489995        -0.247278         0.098098
 C         2.028844         0.164819        -1.239812
 C         3.333000         0.525165        -0.423947
 C         4.487716        -0.391488        -0.913651
 O         3.775898        -1.581544        -0.376080
 C         2.982667        -0.696634         0.525599
 C         2.835199         1.696445         0.390280
 O         1.622121         1.061467         0.919011
 H        -0.118310        -1.618071         0.163445
 H         0.336061        -0.789999         1.652893
 H        -0.637543         0.012444         0.412802
 H         2.108124        -0.473577        -2.077688
 H         1.413850         1.089059        -1.578148
 H         4.661675        -0.479774        -1.967408
 H         5.447364        -0.458761        -0.432197
 H         3.290131        -0.885953         1.608685
 H         3.488062         1.953609         1.171332
 H         2.689020         2.724057        -0.137861
