19
Iteration:  1691
 C         0.110755        -0.855402         0.611599
 C         1.469803        -0.188076         0.112565
 C         1.970259         0.440911        -1.218994
 C         3.338414         0.522099        -0.361152
 C         4.411362        -0.422267        -0.983812
 O         3.772449        -1.592947        -0.582275
 C         2.905565        -0.751276         0.369638
 C         2.969898         1.669719         0.490513
 O         1.742132         1.017080         1.098732
 H         0.346056        -1.639498         1.277911
 H        -0.317707        -0.217003         1.380205
 H        -0.687648        -1.102045        -0.104283
 H         2.005998        -0.137028        -2.112051
 H         1.548298         1.519243        -1.420419
 H         4.681980        -0.284502        -2.044593
 H         5.428191        -0.330059        -0.464698
 H         3.217092        -1.081987         1.435334
 H         3.755050         1.939497         1.194948
 H         2.833842         2.734682        -0.083589
