19
Iteration:  2069
 C         0.194785        -0.705000         0.469203
 C         1.539937        -0.193295         0.191375
 C         1.901729         0.479450        -1.100663
 C         3.264016         0.547021        -0.414981
 C         4.398537        -0.271147        -1.029562
 O         3.575851        -1.517069        -0.871874
 C         2.948220        -0.810502         0.248048
 C         3.062746         1.460844         0.762994
 O         1.828416         0.896442         1.301432
 H        -0.531169         0.021762         0.157674
 H         0.025999        -1.680355        -0.040543
 H         0.028159        -0.846209         1.554643
 H         1.820637        -0.325499        -1.790043
 H         1.405361         1.488384        -1.318338
 H         4.775848        -0.066510        -2.077264
 H         5.174230        -0.272345        -0.206134
 H         3.411228        -1.119957         1.231653
 H         3.865062         1.337467         1.373119
 H         2.991108         2.482797         0.289584
