19
Iteration:   839charge 0 multiplicity 1
 C         0.180713        -0.866118         0.620503
 C         1.525872        -0.196795         0.222168
 C         1.998771        -0.177070        -1.310481
 C         3.266190         0.384767        -0.552250
 C         4.587941        -0.418364        -0.640415
 O         3.881698        -1.500199         0.107375
 C         2.911209        -0.421600         0.706049
 C         2.882536         1.745016        -0.047021
 O         1.483802         1.289788         0.470824
 H         0.081906        -1.880167         0.200310
 H         0.128530        -0.843654         1.677849
 H        -0.612125        -0.226402         0.165983
 H         2.107360        -1.241326        -1.684224
 H         1.483890         0.409004        -1.969264
 H         5.003663        -0.823971        -1.595747
 H         5.341360         0.147691        -0.107870
 H         3.222584        -0.202370         1.760945
 H         3.462390         2.055703         0.776770
 H         2.846742         2.565552        -0.886206
