19
Iteration:  4910charge 0 multiplicity 1
 C         0.126845        -0.516221         0.476976
 C         1.542474        -0.200773         0.245185
 C         1.939524         0.938959        -0.626477
 C         3.377287         0.509009        -0.247976
 C         4.265375         0.024862        -1.392149
 O         3.294261        -1.049797        -1.590032
 C         2.847862        -0.966919        -0.179500
 C         3.270497         0.869585         1.273007
 O         2.076471         0.248880         1.637386
 H        -0.315503        -0.773721        -0.478742
 H         0.084495        -1.399510         1.174205
 H        -0.225316         0.320189         1.122523
 H         1.616673         0.886894        -1.655634
 H         1.648392         1.928167        -0.274956
 H         4.252871         0.707167        -2.269398
 H         5.339908        -0.286453        -1.012560
 H         3.114298        -1.763408         0.364731
 H         4.060203         0.512210         1.877373
 H         3.209066         1.948934         1.357329
