19
Iteration:   716charge 0 multiplicity 1
 C         0.299004        -0.831197         0.714210
 C         1.546214        -0.253877         0.138967
 C         2.094473        -0.161297        -1.288733
 C         3.321584         0.424139        -0.459251
 C         4.569950        -0.519635        -0.543256
 O         3.871274        -1.449009         0.219974
 C         2.917374        -0.437165         0.718696
 C         2.749889         1.777104        -0.246360
 O         1.432554         1.286114         0.341979
 H         0.467745        -1.426201         1.615123
 H        -0.537398        -0.036583         0.771448
 H         0.000348        -1.554326        -0.030991
 H         2.199243        -1.104036        -1.803789
 H         1.334875         0.434128        -1.954969
 H         4.675185        -0.928827        -1.561614
 H         5.539215        -0.261072        -0.076893
 H         3.023196        -0.141635         1.798867
 H         3.055694         2.414826         0.636792
 H         2.556259         2.426341        -1.223205
