19
Iteration:  2583charge 0 multiplicity 1
 C         0.238710        -0.767424         0.534394
 C         1.511721        -0.057299         0.193441
 C         2.000112         0.791780        -0.978614
 C         3.418537         0.544789        -0.273835
 C         4.302033        -0.250198        -1.210176
 O         3.442735        -1.462079        -1.111459
 C         2.830618        -0.921031         0.124967
 C         3.082729         1.425246         0.908823
 O         1.904435         0.645582         1.390364
 H         0.391909        -1.440664         1.462094
 H        -0.626152        -0.032645         0.762798
 H         0.000564        -1.516987        -0.284205
 H         1.918590         0.303923        -1.879922
 H         1.796845         1.808070        -1.071536
 H         4.571541        -0.074190        -2.269396
 H         5.240318        -0.381653        -0.608600
 H         3.020729        -1.548462         0.977866
 H         3.821671         1.486236         1.730260
 H         2.849147         2.444801         0.689809
