19
Iteration:  2719charge 0 multiplicity 1
 C         0.032312        -0.840590         0.473369
 C         1.440136        -0.109285         0.328975
 C         1.910435         0.726245        -0.882398
 C         3.392629         0.477161        -0.265886
 C         4.384197        -0.152944        -1.218656
 O         3.497377        -1.363047        -1.205790
 C         2.851405        -0.935266         0.090130
 C         3.271926         1.269410         0.996457
 O         1.932576         0.819709         1.353439
 H        -0.910469        -0.321666         0.330191
 H         0.069906        -1.615383        -0.291354
 H         0.091880        -1.325769         1.469630
 H         1.639698         0.101826        -1.882220
 H         1.614791         1.833981        -1.003137
 H         4.515758         0.260266        -2.253782
 H         5.404234        -0.349241        -0.778965
 H         3.293945        -1.367749         0.937284
 H         3.963230         1.182024         1.754296
 H         3.196665         2.260004         0.653534
