19
Iteration:   132
 C         0.234965        -0.834473         0.751380
 C         1.507350        -0.255457         0.137306
 C         2.114459        -0.660129        -1.140318
 C         3.336288         0.330138        -0.720128
 C         4.696994        -0.321178        -0.326932
 O         3.918351        -1.184037         0.765207
 C         2.838910        -0.178552         0.730311
 C         2.700551         1.659118        -0.718844
 O         1.391388         1.261102        -0.009063
 H         0.530229        -1.760829         1.214512
 H        -0.189585        -0.122437         1.520754
 H        -0.529347        -1.148496        -0.012941
 H         2.472551        -1.686517        -0.968486
 H         1.550273        -0.583022        -2.045697
 H         5.337032        -0.933910        -0.974973
 H         5.365152         0.422425         0.183283
 H         2.947714         0.428263         1.588838
 H         3.134777         2.283121        -0.049035
 H         2.423614         2.196624        -1.536934
