19
Iteration:   199
 C         0.212341        -0.820097         0.663179
 C         1.488318        -0.242771         0.152969
 C         2.181910        -0.671680        -1.075005
 C         3.278912         0.295536        -0.569147
 C         4.598978        -0.335917        -0.466848
 O         4.038804        -1.284598         0.649054
 C         2.894020        -0.123069         0.898342
 C         2.644833         1.691561        -0.617979
 O         1.374025         1.312764        -0.069512
 H        -0.376433        -0.059664         1.177586
 H        -0.440341        -1.247428        -0.134836
 H         0.429774        -1.594672         1.412097
 H         2.568931        -1.684754        -0.988439
 H         1.644145        -0.533464        -1.993659
 H         4.970080        -0.848457        -1.327489
 H         5.418826         0.321586        -0.037992
 H         3.007173         0.463639         1.791006
 H         3.117491         2.231516         0.106465
 H         2.617899         2.178515        -1.532114
