19
Iteration:  3164
 C         0.129897        -0.725465         0.441023
 C         1.557886        -0.202352         0.224376
 C         1.924423         0.844799        -0.852768
 C         3.365234         0.576478        -0.253363
 C         4.246662        -0.165063        -1.332359
 O         3.343288        -1.251891        -1.330731
 C         2.900805        -0.822338        -0.015050
 C         3.298234         1.097401         1.164276
 O         1.980013         0.556226         1.559520
 H         0.192076        -1.827578         0.664349
 H        -0.552159        -0.173387         1.178580
 H        -0.441212        -0.515129        -0.553453
 H         1.931919         0.524107        -1.833182
 H         1.645296         1.915293        -0.683061
 H         4.133518         0.363652        -2.283282
 H         5.294330        -0.436151        -1.007196
 H         3.175331        -1.593288         0.734969
 H         4.090736         0.606793         1.792802
 H         3.433290         2.201322         1.375028
