19
Iteration:  3905
 C         0.087076        -0.643471         0.463376
 C         1.470724        -0.117453         0.191675
 C         1.957436         0.967026        -0.659833
 C         3.395619         0.508836        -0.155872
 C         4.270587        -0.035883        -1.389921
 O         3.202606        -0.993702        -1.607620
 C         2.863535        -0.919114        -0.207269
 C         3.349135         0.884246         1.292948
 O         2.109329         0.247931         1.665109
 H        -0.268739        -1.272663        -0.319063
 H         0.249081        -1.274572         1.378767
 H        -0.671306         0.124939         0.693711
 H         1.875636         0.631132        -1.810386
 H         1.513039         2.022809        -0.298331
 H         4.517111         0.686812        -2.154697
 H         5.214606        -0.485034        -0.938710
 H         3.289796        -1.679597         0.441295
 H         4.371850         0.644170         1.848307
 H         3.338367         1.977682         1.369484
