19
Iteration:  4799
 C         0.120440        -0.600304         0.473378
 C         1.532500        -0.165042         0.323938
 C         1.937256         0.931950        -0.616433
 C         3.378856         0.493151        -0.163944
 C         4.240600         0.037100        -1.365741
 O         3.268709        -1.045345        -1.680110
 C         2.776904        -0.985386        -0.204919
 C         3.360812         0.889133         1.328585
 O         2.122496         0.311403         1.559988
 H        -0.406594        -0.742953        -0.516424
 H         0.021787        -1.649654         1.063225
 H        -0.618145         0.169291         1.034317
 H         1.847156         0.705935        -1.770796
 H         1.621674         1.973005        -0.533563
 H         4.479894         0.924925        -2.036950
 H         5.270294        -0.332831        -0.938687
 H         3.114790        -1.790134         0.401001
 H         4.044103         0.468040         2.018730
 H         3.353206         1.981673         1.451785
