19
Iteration:  3209
 C         0.186852        -0.771234         0.469276
 C         1.501130        -0.154134         0.236186
 C         1.944393         1.000883        -0.799626
 C         3.353764         0.564564        -0.286198
 C         4.242996        -0.082031        -1.287562
 O         3.386867        -1.301481        -1.306488
 C         2.744267        -0.898602        -0.117707
 C         3.325152         1.040389         1.128624
 O         2.050217         0.514029         1.534189
 H         0.044840        -1.068140         1.521623
 H        -0.591368         0.055690         0.173363
 H         0.031696        -1.563614        -0.290556
 H         1.800593         0.693576        -1.819579
 H         1.438656         1.974349        -0.531333
 H         4.260255         0.319926        -2.320785
 H         5.203889        -0.437201        -0.828741
 H         3.077351        -1.489915         0.761099
 H         4.101179         0.725673         1.823443
 H         3.214516         2.163852         1.309214
