19
Iteration:  3074
 C         0.183684        -0.672868         0.448564
 C         1.515229        -0.170376         0.176225
 C         1.879216         0.824878        -0.920443
 C         3.326235         0.590944        -0.325434
 C         4.244965        -0.053487        -1.296439
 O         3.366237        -1.299744        -1.261126
 C         2.871534        -0.861259         0.099309
 C         3.299987         1.068926         1.108601
 O         2.022853         0.515334         1.515572
 H        -0.321102        -0.939511        -0.600121
 H         0.281721        -1.583003         1.095098
 H        -0.408619         0.008979         1.247599
 H         1.841299         0.482366        -1.852864
 H         1.457558         1.824407        -0.852009
 H         4.515538         0.312453        -2.284920
 H         5.152443        -0.319898        -0.685573
 H         3.095957        -1.610439         0.895229
 H         4.090386         0.632896         1.785727
 H         3.372534         2.196838         1.251945
