19
Iteration:  2439charge 0 multiplicity 1
 C         0.161431        -0.793476         0.533078
 C         1.446781        -0.167614         0.188404
 C         1.950302         0.620461        -1.054863
 C         3.339231         0.573646        -0.336729
 C         4.331464        -0.154250        -1.171783
 O         3.435936        -1.426070        -1.023482
 C         2.888992        -0.830676         0.212908
 C         3.301157         1.273873         0.986383
 O         1.863475         0.858285         1.263639
 H        -0.123389        -1.294845        -0.416960
 H         0.398489        -1.654376         1.326208
 H        -0.614119        -0.039044         0.912637
 H         2.020162         0.015298        -1.982083
 H         1.433278         1.508231        -1.185528
 H         4.387661        -0.060046        -2.312110
 H         5.366895        -0.404522        -0.772232
 H         3.260370        -1.153740         1.154002
 H         4.019328         0.763216         1.740981
 H         3.178728         2.326699         0.963446
