19
Iteration:  4448charge 0 multiplicity 1
 C         0.070871        -0.592464         0.464661
 C         1.513900        -0.197319         0.276426
 C         1.928082         0.953732        -0.673718
 C         3.360870         0.558124        -0.217435
 C         4.226218         0.026151        -1.327627
 O         3.242953        -0.978927        -1.602290
 C         2.816269        -0.903886        -0.183807
 C         3.428243         0.841782         1.277544
 O         2.142688         0.214984         1.607113
 H        -0.268164        -1.349228        -0.241275
 H        -0.078795        -1.027177         1.475854
 H        -0.521308         0.258033         0.493827
 H         1.781188         0.604257        -1.870261
 H         1.602070         1.985840        -0.533520
 H         4.496965         0.577943        -2.278000
 H         5.132407        -0.524583        -0.876886
 H         3.111172        -1.680249         0.437071
 H         4.165053         0.371766         1.919724
 H         3.430631         1.947837         1.555322
