19
Iteration:  2410charge 0 multiplicity 1
 C         0.208205        -0.764827         0.552778
 C         1.450798        -0.087973         0.201459
 C         1.982065         0.820522        -0.920385
 C         3.366895         0.483036        -0.289881
 C         4.353088        -0.254699        -1.241152
 O         3.612092        -1.596290        -1.062958
 C         2.877895        -0.960486         0.118144
 C         3.101862         1.412194         0.895015
 O         1.803351         0.837982         1.343076
 H        -0.397935        -0.849173        -0.294659
 H         0.389190        -1.720059         0.847359
 H        -0.290997        -0.266715         1.346451
 H         1.843309         0.399546        -1.957006
 H         1.539948         1.929029        -0.929571
 H         4.318591        -0.108095        -2.300445
 H         5.338995        -0.373813        -0.852392
 H         3.124432        -1.453448         1.130468
 H         3.740684         1.559085         1.786575
 H         2.815370         2.415685         0.510835
