19
Iteration:  4227charge 0 multiplicity 1
 C         0.175403        -0.648150         0.362931
 C         1.591699        -0.112629         0.242883
 C         2.045510         0.968247        -0.568956
 C         3.416793         0.582862        -0.200833
 C         4.199212        -0.005353        -1.481241
 O         3.145936        -1.062166        -1.516815
 C         2.834999        -0.861671        -0.176884
 C         3.302547         0.883913         1.327702
 O         2.051223         0.208981         1.641298
 H        -0.138932        -1.258258        -0.492469
 H         0.046055        -1.280821         1.195440
 H        -0.553890         0.072476         0.460828
 H         1.920081         0.885971        -1.689524
 H         1.633868         1.996710        -0.328045
 H         4.351978         0.449942        -2.429847
 H         5.125301        -0.452569        -1.155861
 H         3.318419        -1.675373         0.634152
 H         4.149507         0.418254         1.754007
 H         3.348749         1.981686         1.549796
