19
Iteration:   218
 C         0.231185        -0.798730         0.711877
 C         1.522094        -0.185991         0.247626
 C         2.117976        -0.639509        -1.176943
 C         3.339761         0.300567        -0.693446
 C         4.627093        -0.331001        -0.336985
 O         3.903043        -1.188023         0.649067
 C         2.975067        -0.210257         0.736100
 C         2.695386         1.661502        -0.584538
 O         1.345799         1.193842         0.006166
 H        -0.566890        -0.101894         0.619496
 H         0.043584        -1.694889         0.063470
 H         0.233006        -1.184847         1.753140
 H         2.416700        -1.700975        -1.244751
 H         1.572530        -0.385199        -2.064661
 H         5.205196        -0.918380        -1.084329
 H         5.268279         0.379143         0.205172
 H         3.253560         0.467519         1.510715
 H         3.249987         2.413509         0.042160
 H         2.391167         2.271575        -1.554281
