19
Iteration:  1663charge 0 multiplicity 1
 C         0.312258        -0.819358         0.566062
 C         1.561438        -0.114830         0.221025
 C         1.919118         0.321433        -1.272726
 C         3.364640         0.567549        -0.413367
 C         4.433220        -0.392772        -0.982779
 O         3.580673        -1.535179        -0.525270
 C         2.943532        -0.696930         0.333689
 C         2.962941         1.608069         0.578181
 O         1.664626         1.011644         1.050677
 H         0.416032        -1.943886         0.640105
 H        -0.026945        -0.565663         1.613143
 H        -0.479326        -0.516568        -0.179218
 H         1.983645        -0.552620        -1.956691
 H         1.473169         1.174596        -1.700906
 H         4.740101        -0.382980        -2.044509
 H         5.370707        -0.412513        -0.425307
 H         3.209698        -0.958334         1.337777
 H         3.766727         1.546788         1.478600
 H         2.805586         2.497180         0.037775
