19
Iteration:  2526charge 0 multiplicity 1
 C         0.176270        -0.682237         0.514961
 C         1.527672        -0.134921         0.246455
 C         1.853634         0.580354        -1.036119
 C         3.376976         0.573123        -0.325834
 C         4.365381        -0.178887        -1.215758
 O         3.503264        -1.414966        -1.065286
 C         2.932194        -0.827610         0.135882
 C         3.178708         1.228732         1.028936
 O         1.836216         0.782880         1.323625
 H         0.108061        -1.772344         0.744763
 H        -0.377436        -0.113081         1.439526
 H        -0.513268        -0.362692        -0.361863
 H         1.802875        -0.171725        -1.845945
 H         1.485556         1.504700        -1.316577
 H         4.249459        -0.085356        -2.324124
 H         5.431367        -0.217267        -0.922619
 H         3.491963        -1.189245         1.060174
 H         3.922866         0.646444         1.669193
 H         3.191476         2.352088         1.103004
