19
Iteration:  4597
 C         0.133127        -0.612838         0.512355
 C         1.467247        -0.150921         0.272329
 C         1.971016         1.025049        -0.697972
 C         3.371563         0.518981        -0.162290
 C         4.224952         0.046274        -1.377110
 O         3.304799        -1.101644        -1.616426
 C         2.787312        -0.935258        -0.167821
 C         3.344366         0.830348         1.278922
 O         2.114025         0.270052         1.597824
 H        -0.446459        -0.470234        -0.429914
 H         0.085215        -1.632798         0.857761
 H        -0.325404         0.085583         1.179827
 H         1.884747         0.636608        -1.703769
 H         1.624044         2.103462        -0.501439
 H         4.198375         0.784191        -2.140259
 H         5.254980        -0.245942        -1.201576
 H         3.140773        -1.626045         0.485460
 H         4.103387         0.316225         1.883151
 H         3.339519         1.864006         1.519584
