19
Iteration:  4817charge 0 multiplicity 1
 C         0.185552        -0.694299         0.456406
 C         1.526409        -0.113893         0.226344
 C         1.993554         1.016871        -0.653172
 C         3.375443         0.478403        -0.188993
 C         4.263765         0.015107        -1.341274
 O         3.218855        -1.002160        -1.549805
 C         2.758795        -0.886784        -0.189032
 C         3.452782         0.865497         1.229096
 O         1.998453         0.258855         1.645342
 H        -0.263070        -1.206096        -0.379344
 H         0.117781        -1.407779         1.189534
 H        -0.462819        -0.027135         0.809392
 H         1.715440         0.962704        -1.781253
 H         1.657574         2.095874        -0.425484
 H         4.212238         0.535063        -2.308281
 H         5.280314        -0.452847        -1.162539
 H         3.104540        -1.808505         0.336781
 H         4.250781         0.284014         1.786816
 H         3.386065         1.923755         1.489915
