19
Iteration:  1661
 C         0.314660        -0.827986         0.552466
 C         1.556072        -0.110581         0.240275
 C         1.913254         0.296816        -1.274245
 C         3.366469         0.570950        -0.389392
 C         4.426653        -0.391500        -0.981776
 O         3.593805        -1.531760        -0.544808
 C         2.945728        -0.697263         0.353008
 C         2.989904         1.595731         0.579556
 O         1.649281         1.032310         1.043779
 H         0.423364        -1.911529         0.537128
 H         0.008463        -0.565062         1.599564
 H        -0.515221        -0.485345        -0.161071
 H         1.941067        -0.519296        -1.923806
 H         1.421397         1.197761        -1.698576
 H         4.720867        -0.385565        -2.033952
 H         5.312693        -0.451808        -0.402094
 H         3.263008        -0.928825         1.342206
 H         3.773723         1.493659         1.336210
 H         2.759367         2.500533         0.031289
