19
Iteration:  4287charge 0 multiplicity 1
 C         0.118451        -0.715492         0.495288
 C         1.478339        -0.117310         0.246178
 C         1.913418         1.073121        -0.662982
 C         3.430437         0.554021        -0.157520
 C         4.224346         0.010074        -1.334725
 O         3.305133        -1.055944        -1.611811
 C         2.827615        -0.896460        -0.218969
 C         3.420599         0.735417         1.271565
 O         2.040631         0.360369         1.574356
 H        -0.161707        -1.424560        -0.319153
 H         0.007606        -1.239029         1.563121
 H        -0.708413         0.172358         0.483662
 H         1.726722         0.871065        -1.656173
 H         1.441708         1.895374        -0.222612
 H         4.251122         0.668516        -2.267516
 H         5.211609        -0.456721        -1.102164
 H         3.191308        -1.655911         0.501415
 H         4.173629        -0.001297         1.769751
 H         3.531360         1.758836         1.731045
