19
Iteration:  3936charge 0 multiplicity 1
 C         0.180842        -0.708926         0.354473
 C         1.543636        -0.130486         0.301816
 C         1.898940         1.051548        -0.579601
 C         3.376688         0.556304        -0.197121
 C         4.234510        -0.023150        -1.390721
 O         3.220703        -1.098656        -1.521661
 C         2.784935        -0.975262        -0.185134
 C         3.481292         0.915157         1.278864
 O         2.049022         0.328265         1.591325
 H        -0.234383        -0.620392        -0.574822
 H         0.141310        -1.752951         0.631173
 H        -0.507308        -0.141872         0.923142
 H         1.512949         0.968711        -1.759041
 H         1.520416         2.090689        -0.143674
 H         4.294723         0.677414        -2.243102
 H         5.201507        -0.355826        -1.105864
 H         3.111617        -1.863032         0.473063
 H         4.327029         0.321937         1.693897
 H         3.459757         1.953284         1.556644
