19
Iteration:  1988
 C         0.157235        -0.815367         0.463904
 C         1.494576        -0.161165         0.250895
 C         1.856500         0.382291        -1.098579
 C         3.282526         0.604086        -0.459376
 C         4.438375        -0.285088        -1.057736
 O         3.534546        -1.496312        -0.740306
 C         2.947060        -0.755398         0.270983
 C         3.157651         1.464403         0.799503
 O         1.822703         0.973987         1.165804
 H        -0.094118        -0.842617         1.525498
 H        -0.597248        -0.211217        -0.020188
 H         0.184414        -1.803521         0.051838
 H         1.919988        -0.301564        -2.035455
 H         1.261424         1.225823        -1.435713
 H         4.736180        -0.309232        -2.129262
 H         5.369097        -0.263578        -0.489042
 H         3.478888        -0.941349         1.276950
 H         4.058463         1.287708         1.417497
 H         3.110280         2.495831         0.562157
