19
Iteration:  4669charge 0 multiplicity 1
 C         0.130702        -0.703510         0.446061
 C         1.556668        -0.124714         0.329850
 C         1.999641         1.034597        -0.627035
 C         3.457011         0.504155        -0.136706
 C         4.257556        -0.026074        -1.393556
 O         3.182832        -1.007924        -1.597863
 C         2.729445        -0.855541        -0.191518
 C         3.372820         0.884515         1.240478
 O         2.067531         0.214466         1.587351
 H        -0.069744        -1.448509        -0.347267
 H         0.006965        -1.179986         1.482039
 H        -0.643128         0.139105         0.170437
 H         1.810108         0.730390        -1.741929
 H         1.752311         1.994963        -0.300275
 H         4.280385         0.669260        -2.276268
 H         5.256135        -0.415422        -1.104621
 H         3.114289        -1.751491         0.584494
 H         4.248438         0.538715         1.842204
 H         3.343458         2.030539         1.402442
