19
Iteration:  1262
 C         0.170924        -0.712081         0.577828
 C         1.484868        -0.176800         0.180277
 C         1.951063         0.056736        -1.293643
 C         3.286980         0.496932        -0.536522
 C         4.509027        -0.440107        -0.824152
 O         3.837016        -1.563168        -0.219930
 C         3.002129        -0.716310         0.525066
 C         2.934683         1.739033         0.262310
 O         1.553266         1.150005         0.853420
 H         0.264367        -1.580048         1.309436
 H        -0.563148         0.039288         0.984700
 H        -0.352371        -1.184223        -0.340079
 H         2.125893        -0.799756        -1.908339
 H         1.427565         0.863327        -1.912930
 H         4.950627        -0.478403        -1.815714
 H         5.218336         0.030237         0.000037
 H         3.446986        -0.656977         1.567748
 H         3.560938         1.867946         1.174441
 H         2.755304         2.722806        -0.318737
