19
Iteration:  3774
 C         0.181168        -0.727336         0.476825
 C         1.560737        -0.152848         0.270487
 C         2.000058         1.046740        -0.695625
 C         3.424244         0.542246        -0.196857
 C         4.231014        -0.000532        -1.371876
 O         3.141961        -1.004435        -1.607008
 C         2.763932        -0.896038        -0.152068
 C         3.414251         0.787392         1.276604
 O         2.019418         0.303143         1.628529
 H         0.025586        -1.611853        -0.243005
 H         0.040737        -1.071142         1.609392
 H        -0.526087         0.028316        -0.029055
 H         1.874118         1.053615        -1.670602
 H         1.610885         1.996747        -0.315076
 H         4.410373         0.739920        -2.161199
 H         5.258795        -0.407639        -1.089651
 H         3.297509        -1.640797         0.417224
 H         4.207898         0.262567         1.938491
 H         3.459171         1.850939         1.462216
