19
Iteration:  3658charge 0 multiplicity 1
 C         0.144307        -0.761778         0.423983
 C         1.506216        -0.147172         0.316039
 C         1.932898         1.027271        -0.557676
 C         3.386426         0.454034        -0.172649
 C         4.200845        -0.006050        -1.340275
 O         3.342667        -1.103053        -1.612792
 C         2.729005        -0.910166        -0.222647
 C         3.481781         0.891507         1.242984
 O         2.017405         0.428428         1.578226
 H        -0.510268         0.104841         0.290293
 H         0.018666        -1.476808        -0.224514
 H        -0.115017        -0.982615         1.382410
 H         1.632175         0.796973        -1.701632
 H         1.559095         2.075428        -0.378197
 H         4.207009         0.750820        -2.159957
 H         5.228766        -0.384307        -1.282559
 H         3.153574        -1.766824         0.333844
 H         4.093851         0.263820         1.990000
 H         3.548034         2.015423         1.579018
