19
Iteration:  1370charge 0 multiplicity 1
 C         0.199851        -0.832864         0.454320
 C         1.523195        -0.141267         0.189690
 C         1.889826         0.145128        -1.207274
 C         3.232694         0.466189        -0.480126
 C         4.518696        -0.397738        -0.847267
 O         3.735893        -1.563024        -0.322056
 C         2.926697        -0.698769         0.494293
 C         2.969080         1.648482         0.393790
 O         1.688973         1.228281         0.874550
 H        -0.483876        -0.948840        -0.355637
 H         0.579070        -1.828294         0.696508
 H        -0.146785        -0.651596         1.476832
 H         1.855001        -0.751898        -1.734421
 H         1.391621         0.987763        -1.827473
 H         4.841081        -0.519669        -1.865776
 H         5.289345         0.006758        -0.230839
 H         3.385593        -0.586570         1.523372
 H         3.681619         1.853861         1.083329
 H         2.841783         2.711891        -0.005917
