19
Iteration:  4912
 C         0.128756        -0.514540         0.496813
 C         1.533219        -0.208970         0.261596
 C         1.940945         0.962330        -0.639207
 C         3.365560         0.500730        -0.261434
 C         4.279641         0.037007        -1.373785
 O         3.301298        -1.049326        -1.582536
 C         2.845267        -0.970749        -0.186233
 C         3.263243         0.868242         1.258320
 O         2.074106         0.244254         1.622100
 H        -0.325466        -0.756124        -0.514705
 H         0.089421        -1.428886         1.122276
 H        -0.293117         0.365006         1.176887
 H         1.655687         0.912834        -1.559854
 H         1.678994         1.919852        -0.258663
 H         4.250677         0.622400        -2.295098
 H         5.332527        -0.309047        -1.101946
 H         3.202862        -1.801300         0.397626
 H         4.090729         0.487380         1.890116
 H         3.186280         1.949010         1.388411
