19
Iteration:  3750
 C         0.101398        -0.688893         0.495443
 C         1.488469        -0.071696         0.241563
 C         1.893604         1.017799        -0.632774
 C         3.382937         0.593419        -0.192049
 C         4.215864         0.069038        -1.375454
 O         3.320460        -1.092670        -1.583018
 C         2.747993        -0.952314        -0.200267
 C         3.521802         0.760016         1.307852
 O         2.017322         0.329196         1.543786
 H        -0.251022        -1.274160        -0.311951
 H         0.400900        -1.346443         1.361436
 H        -0.680620         0.045743         0.684090
 H         1.680141         0.792083        -1.658162
 H         1.562145         2.062801        -0.488914
 H         4.453904         0.763644        -2.230644
 H         5.222506        -0.287529        -1.003569
 H         3.158813        -1.686312         0.499050
 H         4.218682        -0.102640         1.770912
 H         3.754720         1.698287         1.822049
