19
Iteration:   265
 C         0.282721        -0.753806         0.801114
 C         1.484789        -0.187262         0.111135
 C         2.255505        -0.551061        -1.257233
 C         3.269957         0.389293        -0.541403
 C         4.577531        -0.414858        -0.378332
 O         3.984346        -1.256511         0.587229
 C         2.856924        -0.233816         0.856864
 C         2.612142         1.673303        -0.600544
 O         1.386747         1.212173         0.000941
 H        -0.211553        -1.400331         0.020988
 H         0.608669        -1.474337         1.567230
 H        -0.453171        -0.068797         1.236790
 H         2.555734        -1.570187        -1.365831
 H         1.858743        -0.158119        -2.198403
 H         4.829432        -0.994171        -1.234857
 H         5.531715         0.113734        -0.029151
 H         2.866914         0.045511         1.880545
 H         3.122949         2.367802         0.045427
 H         2.430887         1.988577        -1.659618
