19
Iteration:    99charge 0 multiplicity 1
 C         0.278744        -0.793323         0.724157
 C         1.520208        -0.239561         0.185147
 C         2.209362        -0.620412        -1.119214
 C         3.319942         0.298926        -0.535754
 C         4.671616        -0.332614        -0.385783
 O         3.995470        -1.213695         0.756591
 C         2.873777        -0.227398         0.895984
 C         2.619951         1.636589        -0.742792
 O         1.249539         1.313332        -0.198365
 H         0.020762        -1.725137         0.250378
 H         0.427155        -1.101812         1.784338
 H        -0.544937        -0.047077         0.727795
 H         2.501064        -1.672554        -1.147520
 H         1.705925        -0.341091        -2.036732
 H         5.015519        -1.011817        -1.179332
 H         5.474552         0.287251         0.072734
 H         2.999096         0.313068         1.808705
 H         3.111785         2.331394        -0.182244
 H         2.595350         1.910357        -1.718891
