19
Iteration:  2897charge 0 multiplicity 1
 C         0.131930        -0.767685         0.425337
 C         1.498572        -0.223097         0.311124
 C         1.842541         0.857561        -0.873888
 C         3.350565         0.511209        -0.289470
 C         4.321855        -0.161876        -1.246470
 O         3.403555        -1.308344        -1.246986
 C         2.874254        -0.868845         0.067158
 C         3.340742         1.214864         1.025503
 O         1.959141         0.646481         1.466666
 H        -0.040285        -1.355980         1.318963
 H        -0.550373         0.092513         0.132289
 H         0.040907        -1.623361        -0.298878
 H         1.742293         0.339181        -1.947697
 H         1.381518         1.994836        -0.835265
 H         4.537595         0.198547        -2.294329
 H         5.317803        -0.421999        -0.794999
 H         3.393799        -1.357334         0.889828
 H         3.982639         0.887334         1.809053
 H         3.218800         2.267836         1.036910
