19
Iteration:  1145
 C         0.268711        -0.742362         0.579493
 C         1.511012        -0.188174         0.112158
 C         1.980385         0.083550        -1.317779
 C         3.329532         0.479176        -0.475612
 C         4.565975        -0.410093        -0.744401
 O         3.807886        -1.555362        -0.147387
 C         2.931921        -0.678612         0.657596
 C         2.814447         1.696006         0.121118
 O         1.539169         1.168971         0.754954
 H        -0.542476        -0.029746         0.754192
 H        -0.181319        -1.591392         0.033844
 H         0.523417        -1.098196         1.549408
 H         2.124582        -0.744159        -1.916884
 H         1.393133         0.870028        -1.914307
 H         4.670064        -0.799057        -1.776837
 H         5.484978        -0.272007        -0.215517
 H         3.338980        -0.642020         1.661537
 H         3.441976         2.245571         0.971076
 H         2.524839         2.554486        -0.487929
