19
Iteration:  2755
 C         0.211641        -0.744292         0.481187
 C         1.575195        -0.131074         0.160425
 C         1.883398         0.766211        -0.917167
 C         3.383398         0.589908        -0.325191
 C         4.277569        -0.193901        -1.273590
 O         3.440431        -1.377851        -1.080091
 C         2.863803        -0.887287         0.064692
 C         3.202320         1.224623         1.106455
 O         1.916968         0.657181         1.320418
 H        -0.550987        -0.404458        -0.157362
 H         0.232832        -1.835989         0.730410
 H        -0.028482        -0.327178         1.460152
 H         1.871282         0.210956        -1.985036
 H         1.317763         1.805019        -0.936943
 H         4.341260         0.192463        -2.347409
 H         5.308776        -0.430216        -0.839897
 H         3.304615        -1.324713         1.043221
 H         3.907473         1.017947         1.963520
 H         2.964975         2.311726         1.216983
