19
Iteration:  4186
 C         0.010198        -0.642522         0.503731
 C         1.381427        -0.165366         0.207120
 C         1.952487         1.008585        -0.571773
 C         3.348921         0.538904        -0.247763
 C         4.262793         0.070017        -1.324791
 O         3.438863        -1.110749        -1.571465
 C         2.727430        -0.943850        -0.240752
 C         3.458381         0.761199         1.220374
 O         2.114497         0.411697         1.633884
 H        -0.614429        -0.872644        -0.489123
 H         0.243531        -1.749812         0.890290
 H        -0.545985        -0.153714         1.374200
 H         1.673648         0.850327        -1.707390
 H         1.702562         1.993585        -0.377114
 H         4.312328         0.757351        -2.250739
 H         5.278650        -0.245339        -0.988989
 H         2.940234        -1.746489         0.270382
 H         4.142896         0.120143         1.799516
 H         3.472299         1.885886         1.479490
