19
Iteration:  4141
 C         0.093508        -0.636992         0.469706
 C         1.545520        -0.172519         0.206004
 C         2.007495         0.998026        -0.670535
 C         3.421129         0.588246        -0.181795
 C         4.227877        -0.043618        -1.353958
 O         3.227202        -1.025096        -1.580169
 C         2.839340        -0.928633        -0.178010
 C         3.305897         0.934204         1.288342
 O         2.086550         0.201887         1.599099
 H        -0.670066        -0.428752        -0.403214
 H         0.117761        -1.725920         0.854608
 H        -0.031239        -0.001007         1.370464
 H         1.797067         0.760534        -1.734353
 H         1.586186         1.951436        -0.320860
 H         4.404551         0.548497        -2.302004
 H         5.175418        -0.497586        -0.949855
 H         3.148217        -1.641065         0.436565
 H         4.141266         0.457292         1.809228
 H         3.175495         2.055096         1.529793
