19
Iteration:  2733charge 0 multiplicity 1
 C         0.121043        -0.846716         0.502184
 C         1.468159        -0.082628         0.256436
 C         1.949910         0.779509        -0.921383
 C         3.310453         0.457908        -0.291782
 C         4.329662        -0.158026        -1.238909
 O         3.518506        -1.424346        -1.208901
 C         2.901074        -0.910844         0.107326
 C         3.243753         1.278103         0.958556
 O         1.857008         0.819040         1.434079
 H        -0.567808        -0.225644         0.021053
 H         0.172003        -1.906789         0.141209
 H        -0.181410        -0.978303         1.541518
 H         1.930449         0.344855        -2.051205
 H         1.581783         1.900576        -0.849735
 H         4.397443         0.358557        -2.259785
 H         5.350929        -0.425845        -0.812812
 H         3.293004        -1.611214         0.953621
 H         3.932735         0.815130         1.731224
 H         3.345930         2.386649         1.071952
