19
Iteration:  1226charge 0 multiplicity 1
 C         0.148456        -0.823960         0.574639
 C         1.500616        -0.267289         0.125062
 C         2.025992         0.094142        -1.267757
 C         3.371467         0.470442        -0.393363
 C         4.465938        -0.434193        -0.894087
 O         3.807233        -1.540539        -0.174105
 C         2.934704        -0.642537         0.574143
 C         2.916009         1.791516         0.193052
 O         1.564801         1.213160         0.846157
 H         0.128525        -1.859413         0.192241
 H         0.112588        -0.794854         1.670002
 H        -0.625804        -0.199227         0.050470
 H         2.169704        -0.870520        -1.933253
 H         1.536974         0.899609        -1.768554
 H         4.719626        -0.625470        -1.966390
 H         5.481198        -0.364063        -0.393919
 H         3.155284        -0.766068         1.696620
 H         3.497641         2.175232         0.986403
 H         2.668282         2.573688        -0.649752
