19
Iteration:  3467charge 0 multiplicity 1
 C         0.191176        -0.702849         0.444592
 C         1.545281        -0.185636         0.229620
 C         1.970332         0.921378        -0.751535
 C         3.428367         0.543219        -0.158626
 C         4.206909        -0.113724        -1.358426
 O         3.226550        -1.050028        -1.482125
 C         2.820234        -0.928473        -0.075999
 C         3.362177         1.024358         1.240444
 O         2.027133         0.376688         1.558998
 H         0.136045        -1.607040        -0.067962
 H        -0.073889        -0.767697         1.482423
 H        -0.560227        -0.032349        -0.033038
 H         1.774162         0.557389        -1.821641
 H         1.414222         1.985615        -0.722535
 H         4.278096         0.482162        -2.276698
 H         5.223211        -0.533318        -1.013625
 H         3.286547        -1.661247         0.599708
 H         4.091871         0.578744         1.976020
 H         3.230615         2.247456         1.363392
