19
Iteration:  1868
 C         0.093552        -0.809228         0.550123
 C         1.448516        -0.145723         0.238542
 C         1.981138         0.517019        -1.097958
 C         3.344926         0.492881        -0.427689
 C         4.431298        -0.259696        -1.079880
 O         3.696834        -1.589787        -0.628476
 C         2.917235        -0.829135         0.340517
 C         3.049651         1.556024         0.567843
 O         1.818228         0.943489         1.124448
 H        -0.400081        -1.273701        -0.274662
 H         0.204197        -1.486460         1.382828
 H        -0.584467        -0.010475         0.785002
 H         1.812330        -0.012331        -2.140864
 H         1.531208         1.495412        -1.205924
 H         4.346865        -0.159971        -2.235394
 H         5.506349        -0.276608        -0.698849
 H         3.080198        -1.215444         1.431647
 H         3.676172         1.742749         1.352182
 H         2.555185         2.447835         0.140264
