19
Iteration:  1859
 C         0.078663        -0.815712         0.601931
 C         1.468687        -0.145970         0.211925
 C         1.920608         0.519302        -1.090902
 C         3.429554         0.455078        -0.358876
 C         4.505073        -0.337125        -1.096086
 O         3.689816        -1.566676        -0.669525
 C         2.911203        -0.798426         0.343098
 C         3.065866         1.594354         0.554398
 O         1.723050         0.931969         1.134263
 H        -0.290095        -1.074591        -0.442140
 H         0.154272        -1.755704         1.148816
 H        -0.593771        -0.116780         1.097247
 H         1.794418        -0.022038        -2.115450
 H         1.577514         1.505445        -1.130110
 H         4.258371        -0.136927        -2.203174
 H         5.593251        -0.212991        -0.828546
 H         2.990984        -1.077265         1.421681
 H         3.707822         1.992754         1.322901
 H         2.806845         2.568556        -0.120890
