19
Iteration:   500charge 0 multiplicity 1
 C         0.212466        -0.726650         0.637162
 C         1.531469        -0.227865         0.175101
 C         2.088880        -0.495444        -1.204616
 C         3.332786         0.345422        -0.522502
 C         4.613096        -0.390919        -0.527628
 O         4.051568        -1.440764         0.430985
 C         2.960379        -0.340922         0.771893
 C         2.599998         1.766011        -0.372760
 O         1.366893         1.304540         0.175862
 H         0.165756        -1.824006         0.664855
 H         0.108745        -0.274789         1.708939
 H        -0.546175        -0.328570        -0.047754
 H         2.203656        -1.538135        -1.447273
 H         1.518459         0.021808        -1.976888
 H         4.993902        -0.725682        -1.574450
 H         5.425364         0.104237         0.059627
 H         3.061765         0.139122         1.775921
 H         3.007777         2.366999         0.566898
 H         2.455106         2.273825        -1.346754
