19
Iteration:  4952
 C         0.105832        -0.640576         0.501415
 C         1.443627        -0.116683         0.165898
 C         1.877269         1.033222        -0.681721
 C         3.299749         0.563287        -0.191939
 C         4.316238         0.017168        -1.381989
 O         3.390799        -1.110596        -1.523654
 C         2.653897        -0.925513        -0.249057
 C         3.406591         0.791398         1.275881
 O         2.166368         0.336193         1.665861
 H        -0.562972        -0.655304        -0.323697
 H         0.210798        -1.704444         0.817569
 H        -0.337129        -0.221103         1.333949
 H         1.693097         0.798165        -1.886373
 H         1.503927         2.085623        -0.417439
 H         4.341551         0.632276        -2.323844
 H         5.318207        -0.312911        -0.972439
 H         3.068759        -1.718381         0.525340
 H         4.238518         0.169421         1.588508
 H         3.528530         1.825970         1.675312
