19
Iteration:  2072charge 0 multiplicity 1
 C         0.168470        -0.727983         0.469832
 C         1.515569        -0.179527         0.211641
 C         1.876501         0.494293        -1.062809
 C         3.264626         0.551684        -0.404257
 C         4.414799        -0.278375        -1.022145
 O         3.597933        -1.518742        -0.902318
 C         2.953567        -0.811587         0.262741
 C         3.091925         1.459648         0.731968
 O         1.828765         0.911861         1.284058
 H        -0.630731        -0.073118         0.045025
 H         0.030170        -1.751544        -0.056162
 H        -0.076473        -0.806450         1.586184
 H         1.851880        -0.355554        -1.801194
 H         1.489088         1.431050        -1.277364
 H         4.739337        -0.078260        -2.023929
 H         5.207251        -0.254767        -0.214827
 H         3.320331        -1.069817         1.217098
 H         3.984324         1.257686         1.389415
 H         2.987328         2.492803         0.347570
