19
Iteration:  4132
 C         0.151104        -0.645962         0.437504
 C         1.497272        -0.229168         0.227403
 C         1.979098         1.034675        -0.685327
 C         3.389020         0.512142        -0.214247
 C         4.269663        -0.034960        -1.387234
 O         3.219772        -1.016978        -1.580758
 C         2.798201        -0.911906        -0.123594
 C         3.366929         0.974212         1.279049
 O         2.092117         0.201531         1.664597
 H        -0.500086        -0.531653        -0.540611
 H        -0.082285        -1.746688         0.782068
 H        -0.369073         0.033846         1.242310
 H         1.803001         1.091882        -1.823208
 H         1.711142         1.950691        -0.399065
 H         4.447168         0.659854        -2.327435
 H         5.249074        -0.537782        -1.141793
 H         3.167969        -1.724369         0.464294
 H         4.097234         0.580012         2.038750
 H         3.224696         2.052310         1.515270
