19
Iteration:  3617
 C         0.140181        -0.773251         0.488796
 C         1.525659        -0.120369         0.267826
 C         2.007151         1.075728        -0.702122
 C         3.414488         0.611426        -0.216414
 C         4.258758        -0.084937        -1.356698
 O         3.226188        -1.079408        -1.495219
 C         2.792211        -0.786577        -0.196324
 C         3.400379         0.841563         1.289283
 O         1.999638         0.280179         1.547563
 H        -0.431332        -0.220621         1.230231
 H        -0.694028        -0.818840        -0.407591
 H         0.313964        -1.840405         0.773774
 H         1.790464         0.641314        -1.744650
 H         1.671706         2.043730        -0.548457
 H         4.263988         0.507924        -2.349233
 H         5.296043        -0.372428        -1.094101
 H         3.193821        -1.425757         0.620034
 H         4.322484         0.386692         1.820502
 H         3.344723         1.899897         1.523902
