19
Iteration:  3430charge 0 multiplicity 1
 C         0.135662        -0.642009         0.513792
 C         1.506567        -0.090472         0.295967
 C         1.869225         1.021363        -0.668918
 C         3.315531         0.485604        -0.268447
 C         4.236382        -0.046423        -1.369626
 O         3.505694        -1.237697        -1.454030
 C         2.794756        -0.973716        -0.153923
 C         3.370274         0.935354         1.198582
 O         1.966918         0.439974         1.525105
 H        -0.280497        -0.993738        -0.490539
 H         0.111098        -1.625204         1.296437
 H        -0.547702         0.159226         0.835110
 H         1.804334         0.713851        -1.717235
 H         1.646535         1.988040        -0.426478
 H         4.210132         0.528611        -2.319375
 H         5.271028        -0.123438        -1.183184
 H         3.155775        -1.598528         0.670392
 H         4.082282         0.530413         1.862315
 H         3.400632         2.078756         1.320409
