19
Iteration:   102
 C         0.279630        -0.808499         0.738817
 C         1.506129        -0.215419         0.173345
 C         2.212291        -0.652365        -1.129953
 C         3.300314         0.295287        -0.524400
 C         4.642573        -0.339468        -0.368590
 O         4.004165        -1.197369         0.736823
 C         2.885932        -0.230232         0.882304
 C         2.643787         1.593166        -0.730397
 O         1.248543         1.346715        -0.192949
 H         0.099989        -1.760293         0.272448
 H         0.392771        -1.037531         1.805873
 H        -0.588240        -0.166527         0.634418
 H         2.442688        -1.735075        -1.171624
 H         1.797018        -0.318772        -2.068232
 H         5.042648        -0.939036        -1.126157
 H         5.426618         0.316760         0.081559
 H         3.109143         0.343768         1.831003
 H         3.104859         2.419162        -0.114862
 H         2.629952         1.981273        -1.768335
