19
Iteration:  3792charge 0 multiplicity 1
 C         0.069658        -0.748895         0.390964
 C         1.521028        -0.118914         0.301593
 C         2.033177         1.023453        -0.457426
 C         3.437638         0.446176        -0.151948
 C         4.222103        -0.043145        -1.416777
 O         3.170119        -0.993495        -1.628107
 C         2.822622        -0.903949        -0.225711
 C         3.419410         0.995955         1.276486
 O         2.073161         0.285956         1.583580
 H         0.022508        -1.663995        -0.038135
 H        -0.019778        -0.910115         1.383940
 H        -0.722299        -0.269685        -0.077403
 H         1.708821         0.753942        -1.668641
 H         1.882936         2.130596        -0.177379
 H         4.356974         0.534819        -2.377106
 H         5.153390        -0.574354        -1.195779
 H         3.041775        -1.902606         0.232381
 H         4.192661         0.528485         2.021677
 H         3.334987         2.064356         1.556518
