19
Iteration:  2253
 C         0.065143        -0.818256         0.463495
 C         1.474137        -0.222102         0.237655
 C         1.932398         0.682257        -0.971215
 C         3.343300         0.486832        -0.301832
 C         4.354349        -0.207760        -1.110992
 O         3.574475        -1.510742        -1.008292
 C         2.854571        -0.935222         0.210131
 C         3.222687         1.468613         0.829420
 O         1.910173         0.928505         1.275938
 H        -0.293201        -0.775349         1.460071
 H        -0.684329        -0.478534        -0.295851
 H         0.183189        -1.888534         0.319446
 H         1.713106         0.195979        -1.958411
 H         1.635153         1.767709        -0.933972
 H         4.386791         0.114972        -2.186909
 H         5.284774        -0.132628        -0.612696
 H         3.304035        -1.503758         1.010708
 H         3.973050         1.300749         1.636624
 H         2.943292         2.441205         0.561784
