19
Iteration:   184charge 0 multiplicity 1
 C         0.154571        -0.799281         0.714738
 C         1.477809        -0.223569         0.183734
 C         2.203626        -0.687187        -1.116720
 C         3.299180         0.379998        -0.490919
 C         4.650372        -0.449697        -0.410185
 O         4.090825        -1.137803         0.639740
 C         2.880781        -0.280695         0.836079
 C         2.654547         1.713801        -0.644316
 O         1.318558         1.317830        -0.084026
 H        -0.219499        -0.304581         1.621282
 H        -0.575526        -0.675538        -0.112789
 H         0.359002        -1.872774         0.927294
 H         2.534647        -1.735116        -1.031262
 H         1.816494        -0.381822        -2.103546
 H         4.795902        -1.151932        -1.308513
 H         5.606821        -0.000669        -0.167938
 H         3.013670         0.102132         1.854771
 H         3.089467         2.608318        -0.068636
 H         2.334200         1.898798        -1.795322
