19
Iteration:    84charge 0 multiplicity 1
 C         0.197120        -0.764495         0.747292
 C         1.541913        -0.296603         0.151524
 C         2.228919        -0.630021        -1.108311
 C         3.336025         0.421645        -0.570706
 C         4.663052        -0.437063        -0.333289
 O         3.976523        -1.197362         0.767965
 C         2.918150        -0.120908         0.842458
 C         2.555182         1.722955        -0.743105
 O         1.377909         1.111598        -0.160444
 H        -0.493753        -1.228850        -0.030308
 H         0.361820        -1.369341         1.648075
 H        -0.339512         0.166821         1.013598
 H         2.647638        -1.635789        -1.214398
 H         1.623874        -0.310519        -2.008065
 H         5.000356        -1.079425        -1.229702
 H         5.543158         0.086711         0.031104
 H         2.894677         0.368981         1.841205
 H         2.730920         2.735001        -0.196191
 H         2.234590         2.086859        -1.831028
