19
Iteration:  3333charge 0 multiplicity 1
 C         0.117989        -0.803845         0.389309
 C         1.497145        -0.168527         0.288771
 C         1.959094         0.896244        -0.718771
 C         3.384346         0.489770        -0.253808
 C         4.297337        -0.047326        -1.327974
 O         3.277335        -1.191198        -1.404700
 C         2.763957        -0.922515        -0.004752
 C         3.385525         1.052184         1.178690
 O         2.031498         0.582037         1.489109
 H        -0.537907        -0.195165         0.940359
 H        -0.169324        -1.193566        -0.532957
 H         0.280036        -1.613015         1.031814
 H         1.763040         0.637974        -1.875255
 H         1.663842         1.894481        -0.358616
 H         4.314928         0.587733        -2.275942
 H         5.395298        -0.269905        -1.109170
 H         3.079604        -1.677428         0.714850
 H         4.146421         0.601314         1.717870
 H         3.408333         2.200769         1.335146
