19
Iteration:  2983
 C         0.148243        -0.694485         0.527852
 C         1.490086        -0.134903         0.285223
 C         1.866463         0.820871        -0.907200
 C         3.342529         0.575843        -0.310248
 C         4.353260        -0.116612        -1.206887
 O         3.427248        -1.344028        -1.267386
 C         2.860447        -0.833490        -0.065481
 C         3.251446         1.095403         1.049490
 O         1.956266         0.584280         1.496545
 H        -0.565030         0.090374         0.888446
 H        -0.252183        -1.267557        -0.450763
 H         0.176122        -1.563223         1.286812
 H         1.724634         0.312589        -1.899257
 H         1.576613         1.759114        -1.013926
 H         4.558030         0.420129        -2.152024
 H         5.255126        -0.390392        -0.716747
 H         3.357129        -1.471446         0.651705
 H         4.055136         0.638342         1.658214
 H         3.380465         2.254069         1.167561
