19
Iteration:  4172
 C         0.055306        -0.683405         0.543038
 C         1.486392        -0.103683         0.248470
 C         1.901417         1.035426        -0.721238
 C         3.341496         0.468809        -0.223175
 C         4.313862         0.036588        -1.337588
 O         3.418678        -1.063892        -1.603668
 C         2.729479        -0.926875        -0.207893
 C         3.398897         0.798792         1.237283
 O         2.037906         0.331098         1.641335
 H        -0.728560        -0.424377        -0.189882
 H         0.077676        -1.704244         0.845496
 H        -0.224541        -0.067857         1.344298
 H         1.688054         0.801042        -1.760946
 H         1.657952         2.083308        -0.262623
 H         4.411486         0.664918        -2.181943
 H         5.298903        -0.270042        -0.981701
 H         3.084995        -1.745389         0.520020
 H         4.205895         0.198591         1.591345
 H         3.654626         1.854618         1.555768
