19
Iteration:  1857
 C         0.082069        -0.810218         0.597560
 C         1.479374        -0.155524         0.200031
 C         1.906243         0.516716        -1.089430
 C         3.428186         0.454454        -0.328438
 C         4.499308        -0.359603        -1.102708
 O         3.695079        -1.559785        -0.679660
 C         2.902843        -0.789300         0.338590
 C         3.066071         1.615122         0.553155
 O         1.708864         0.937593         1.139780
 H        -0.256000        -1.042661        -0.380440
 H         0.147928        -1.772577         1.080471
 H        -0.565821        -0.175206         1.180689
 H         1.804206        -0.077986        -2.114591
 H         1.578432         1.535925        -1.167407
 H         4.348805        -0.177746        -2.238985
 H         5.617042        -0.242464        -0.838060
 H         3.090931        -1.079560         1.454913
 H         3.666435         1.959319         1.297992
 H         2.894701         2.543017        -0.089934
