19
Iteration:  4236
 C         0.146667        -0.695645         0.336608
 C         1.528175        -0.179611         0.302110
 C         2.029812         1.044495        -0.649043
 C         3.454974         0.537479        -0.154684
 C         4.203549        -0.024728        -1.467862
 O         3.112371        -1.061585        -1.573627
 C         2.847055        -0.844101        -0.162912
 C         3.365179         0.965761         1.388273
 O         2.102598         0.216440         1.623950
 H         0.034264        -1.349776        -0.473374
 H        -0.130649        -1.207351         1.209872
 H        -0.546710         0.136594         0.299105
 H         1.848913         0.769934        -1.658123
 H         1.633517         2.145305        -0.330721
 H         4.277048         0.490438        -2.395685
 H         5.126305        -0.568059        -1.179972
 H         3.343867        -1.792245         0.498317
 H         4.091099         0.459622         2.052649
 H         3.130587         1.968433         1.618224
