19
Iteration:  3915charge 0 multiplicity 1
 C         0.159343        -0.652666         0.425958
 C         1.548284        -0.185595         0.269050
 C         1.972207         0.944438        -0.636701
 C         3.403768         0.567375        -0.219093
 C         4.219976        -0.037896        -1.344929
 O         3.152160        -1.008403        -1.606841
 C         2.860518        -0.829262        -0.148799
 C         3.344754         0.873787         1.278442
 O         2.091491         0.260663         1.642538
 H        -0.229377        -0.925536        -0.471303
 H         0.085791        -1.528476         1.071503
 H        -0.507430         0.135160         0.727793
 H         1.852423         0.740504        -1.860861
 H         1.511667         2.064052        -0.528729
 H         4.543003         0.478113        -2.258679
 H         5.068945        -0.605871        -0.930114
 H         3.408350        -1.623507         0.409700
 H         4.201687         0.318078         1.853718
 H         3.211058         1.925515         1.484833
