19
Iteration:  4867
 C         0.190352        -0.743337         0.357670
 C         1.507484        -0.103914         0.281590
 C         1.985965         1.054670        -0.575057
 C         3.405714         0.464004        -0.223993
 C         4.204021         0.065386        -1.400729
 O         3.247968        -1.055260        -1.546777
 C         2.740921        -0.876608        -0.112551
 C         3.407685         0.790505         1.214368
 O         2.063160         0.352134         1.641521
 H         0.012472        -1.524446        -0.443064
 H        -0.012305        -1.249802         1.371702
 H        -0.702750         0.072834         0.291168
 H         1.686606         0.989145        -1.553571
 H         1.701163         2.027505        -0.254172
 H         4.364511         0.549212        -2.360082
 H         5.090625        -0.596915        -1.203598
 H         3.074717        -1.681842         0.483557
 H         4.179295         0.201228         1.696376
 H         3.475572         1.834146         1.516894
