19
Iteration:  2179charge 0 multiplicity 1
 C         0.172821        -0.788307         0.458480
 C         1.503926        -0.081788         0.288037
 C         1.823650         0.635085        -0.962036
 C         3.280961         0.463352        -0.300537
 C         4.422982        -0.192721        -1.055141
 O         3.623296        -1.512612        -0.987651
 C         2.820767        -0.990736         0.242771
 C         3.135573         1.423210         0.751259
 O         1.911750         0.911806         1.217206
 H         0.275538        -1.819969         0.469247
 H        -0.412488        -0.400905         1.337973
 H        -0.479247        -0.557819        -0.391505
 H         1.646850         0.019852        -1.948572
 H         1.371972         1.649207        -1.141597
 H         4.587115         0.316544        -2.031288
 H         5.369175        -0.312284        -0.469790
 H         3.328540        -1.581587         1.160642
 H         3.856327         1.317797         1.510642
 H         3.125745         2.542096         0.321175
