19
Iteration:     1charge 0 multiplicity 1
 C         0.243528        -0.792602         0.723057
 C         1.510785        -0.239700         0.139239
 C         2.232269        -0.719062        -1.122714
 C         3.317577         0.303160        -0.608471
 C         4.647582        -0.362721        -0.265121
 O         3.975077        -1.090152         0.812651
 C         2.898298        -0.106311         0.821590
 C         2.590169         1.616270        -0.782529
 O         1.330767         1.192908        -0.159108
 H        -0.033082        -0.240491         1.626501
 H        -0.580465        -0.712614         0.007384
 H         0.378529        -1.845678         0.985392
 H         2.578901        -1.749750        -1.071153
 H         1.746884        -0.501459        -2.076380
 H         5.089403        -1.039058        -1.003136
 H         5.414421         0.311574         0.137702
 H         2.964662         0.566576         1.682034
 H         3.017525         2.450067        -0.216901
 H         2.400062         1.930070        -1.814673
