19
Iteration:  2696
 C         0.214084        -0.738798         0.442344
 C         1.579305        -0.196441         0.238093
 C         1.894299         0.709084        -1.002551
 C         3.331403         0.552198        -0.314392
 C         4.316372        -0.196705        -1.185199
 O         3.430195        -1.383019        -1.151861
 C         2.872298        -0.941485         0.134843
 C         3.174595         1.364883         0.976388
 O         1.914829         0.694172         1.435099
 H        -0.248941         0.138708         0.999238
 H        -0.410213        -0.944724        -0.398800
 H         0.237930        -1.526345         1.204466
 H         1.914928         0.193403        -2.019958
 H         1.452254         1.723921        -1.073746
 H         4.604111         0.243865        -2.142826
 H         5.234179        -0.446965        -0.607559
 H         3.299334        -1.339545         0.978260
 H         3.966457         1.124453         1.614396
 H         2.994257         2.395073         0.999831
