19
Iteration:  2803charge 0 multiplicity 1
 C         0.105519        -0.646686         0.476561
 C         1.526607        -0.119630         0.320434
 C         1.767849         0.749541        -0.852464
 C         3.337757         0.434811        -0.247072
 C         4.365529        -0.129580        -1.198889
 O         3.557254        -1.399305        -1.312876
 C         2.851594        -0.969153         0.040600
 C         3.200648         1.286987         0.986730
 O         1.967020         0.681594         1.429200
 H         0.218441        -1.397776        -0.408490
 H         0.051781        -1.188149         1.395727
 H        -0.841235        -0.082129         0.351739
 H         1.645952         0.311013        -1.705558
 H         1.570548         1.741485        -0.864662
 H         4.420687         0.371544        -2.130624
 H         5.351625        -0.240719        -0.769924
 H         3.217477        -1.617372         0.900954
 H         4.026420         1.041596         1.762230
 H         3.240501         2.442352         0.854738
