19
Iteration:  2199charge 0 multiplicity 1
 C         0.109122        -0.753346         0.525906
 C         1.474587        -0.216291         0.174605
 C         1.914772         0.553891        -1.043625
 C         3.338891         0.556255        -0.350139
 C         4.403575        -0.273043        -1.149241
 O         3.586544        -1.453536        -0.939638
 C         2.892817        -0.819177         0.204825
 C         3.190041         1.383047         0.849363
 O         1.804079         0.873939         1.301423
 H         0.179948        -1.631217         1.078955
 H        -0.412284        -0.005844         1.144813
 H        -0.444513        -0.909352        -0.384817
 H         1.901306         0.061475        -2.055932
 H         1.497548         1.604819        -1.199370
 H         4.617270        -0.011693        -2.214653
 H         5.317421        -0.253642        -0.613865
 H         3.402722        -1.353305         1.068896
 H         3.917705         1.304879         1.664751
 H         3.041057         2.468181         0.745179
