19
Iteration:   235
 C         0.245338        -0.838482         0.777769
 C         1.491070        -0.296700         0.089357
 C         2.116815        -0.580416        -1.248113
 C         3.276001         0.348992        -0.680490
 C         4.745688        -0.423008        -0.275599
 O         3.980922        -1.260922         0.656905
 C         2.900534        -0.138046         0.733931
 C         2.572293         1.677205        -0.640478
 O         1.400634         1.285977         0.079447
 H        -0.606815        -0.335235         0.203684
 H         0.172914        -1.924334         0.773754
 H         0.271769        -0.519236         1.842574
 H         2.379051        -1.635364        -1.386896
 H         1.556232        -0.086401        -2.105429
 H         5.294586        -1.088321        -0.971423
 H         5.409974         0.270295         0.302550
 H         2.878555         0.380235         1.782438
 H         3.154931         2.543896        -0.180535
 H         2.365702         2.195180        -1.546817
