19
Iteration:   258
 C         0.273056        -0.757253         0.810543
 C         1.512737        -0.187067         0.072483
 C         2.254209        -0.506405        -1.292039
 C         3.297506         0.362157        -0.564869
 C         4.571199        -0.373497        -0.351198
 O         3.979786        -1.251557         0.643096
 C         2.862925        -0.340188         0.823563
 C         2.608318         1.636570        -0.662073
 O         1.381975         1.225504         0.065175
 H        -0.436842        -1.194616         0.038891
 H         0.701623        -1.557671         1.404268
 H        -0.265589        -0.053699         1.488645
 H         2.577206        -1.569730        -1.310086
 H         1.755507        -0.114817        -2.227000
 H         4.767834        -1.012765        -1.268918
 H         5.454255         0.109470         0.073380
 H         2.871779         0.275840         1.838011
 H         2.861410         2.654285        -0.187211
 H         2.520117         2.065500        -1.644008
