19
Iteration:  4762charge 0 multiplicity 1
 C         0.085787        -0.541520         0.508077
 C         1.511801        -0.120963         0.270396
 C         1.900287         1.029940        -0.632230
 C         3.323345         0.517128        -0.261654
 C         4.242814         0.100723        -1.361578
 O         3.350177        -1.120029        -1.522117
 C         2.833733        -0.935517        -0.168542
 C         3.377228         0.831462         1.248323
 O         2.098664         0.186836         1.535506
 H        -0.476722        -0.481834        -0.413451
 H         0.087723        -1.564489         0.764671
 H        -0.338823        -0.039137         1.289709
 H         1.737259         0.804148        -1.689383
 H         1.554628         2.078709        -0.261647
 H         4.201397         0.609315        -2.325280
 H         5.275221        -0.344032        -1.165099
 H         3.198842        -1.703999         0.462217
 H         4.124824         0.293802         1.895226
 H         3.311334         1.873319         1.546850
