19
Iteration:  4069charge 0 multiplicity 1
 C         0.086838        -0.733668         0.440734
 C         1.547492        -0.148215         0.197156
 C         1.926364         1.059037        -0.569676
 C         3.437345         0.574032        -0.184369
 C         4.222676         0.017100        -1.434890
 O         3.224782        -1.060021        -1.517823
 C         2.804648        -0.826394        -0.138576
 C         3.415112         0.789682         1.327987
 O         2.046402         0.279754         1.494385
 H        -0.099438        -1.551068        -0.123391
 H         0.147355        -1.035207         1.469835
 H        -0.615307         0.084901         0.391090
 H         1.912245         0.809003        -1.728025
 H         1.738557         2.167613        -0.225298
 H         4.247238         0.712620        -2.298094
 H         5.206291        -0.356498        -1.286544
 H         3.303777        -1.721964         0.502086
 H         4.076138         0.022405         1.840602
 H         3.606963         1.750127         1.722208
