19
Iteration:  4252
 C         0.134890        -0.730604         0.313240
 C         1.602366        -0.096368         0.309478
 C         1.963697         1.022307        -0.579798
 C         3.456752         0.482345        -0.162102
 C         4.198301        -0.047459        -1.362861
 O         3.167641        -0.998261        -1.618817
 C         2.758667        -0.944129        -0.160446
 C         3.393424         0.926324         1.301412
 O         2.103802         0.278200         1.655526
 H         0.023741        -1.585276        -0.461954
 H        -0.242744        -1.230184         1.293355
 H        -0.707599        -0.010883         0.080651
 H         1.738096         0.982110        -1.721629
 H         1.752122         1.975052        -0.331257
 H         4.244347         0.802405        -2.119683
 H         5.183979        -0.493926        -1.300469
 H         3.104611        -1.817570         0.482198
 H         4.235301         0.634733         1.943134
 H         3.382081         2.089711         1.200432
