19
Iteration:  1010
 C         0.164061        -0.894591         0.656837
 C         1.450487        -0.194822         0.234191
 C         2.028223        -0.029702        -1.195070
 C         3.306424         0.414268        -0.445831
 C         4.593744        -0.430651        -0.741850
 O         3.902457        -1.563836        -0.124740
 C         2.876873        -0.576693         0.622953
 C         2.859467         1.744085         0.073342
 O         1.527873         1.386513         0.525748
 H         0.155817        -1.762601        -0.026383
 H         0.143178        -1.123263         1.731077
 H        -0.667432        -0.200481         0.365575
 H         2.189549        -1.080054        -1.618441
 H         1.406100         0.531796        -1.876882
 H         4.879369        -0.570760        -1.779849
 H         5.460984        -0.244728        -0.098412
 H         3.216320        -0.732405         1.609888
 H         3.443684         2.190722         1.012377
 H         2.690926         2.640416        -0.622745
