19
Iteration:  2285
 C         0.241714        -0.799874         0.419361
 C         1.518340        -0.127367         0.290883
 C         1.858219         0.583925        -1.036549
 C         3.358718         0.554836        -0.438506
 C         4.406150        -0.308668        -1.108281
 O         3.440670        -1.421635        -1.010173
 C         2.892821        -0.811744         0.232617
 C         3.183946         1.377809         0.887827
 O         1.818562         0.865793         1.359668
 H        -0.371981        -0.262326         1.218450
 H        -0.385335        -0.816146        -0.543963
 H         0.362354        -1.862507         0.707640
 H         1.701258        -0.151447        -1.852180
 H         1.482860         1.598741        -1.245183
 H         4.618127        -0.046881        -2.206784
 H         5.419312        -0.346771        -0.587691
 H         3.317981        -1.336959         1.027872
 H         4.167772         1.215893         1.591275
 H         3.169640         2.457821         0.894692
