19
Iteration:  4916charge 0 multiplicity 1
 C         0.118371        -0.514497         0.542844
 C         1.521964        -0.216011         0.298011
 C         1.954289         1.007895        -0.634316
 C         3.343477         0.484149        -0.265186
 C         4.303509         0.060659        -1.341228
 O         3.318938        -1.056649        -1.569521
 C         2.832737        -0.973351        -0.205001
 C         3.274778         0.873788         1.227923
 O         2.061927         0.228180         1.582237
 H        -0.364709        -0.655222        -0.451909
 H         0.059171        -1.493306         1.016607
 H        -0.394886         0.282180         1.102934
 H         1.632832         0.897973        -1.804886
 H         1.712203         2.003493        -0.180560
 H         4.294614         0.503482        -2.354741
 H         5.266086        -0.358166        -1.278847
 H         3.383351        -1.856549         0.484843
 H         4.129515         0.456030         1.869566
 H         3.153157         1.973712         1.470121
