19
Iteration:   404charge 0 multiplicity 1
 C         0.176395        -0.952704         0.789289
 C         1.464705        -0.301826         0.170234
 C         2.147373        -0.485466        -1.188106
 C         3.356367         0.436392        -0.598500
 C         4.598798        -0.420339        -0.484484
 O         3.925906        -1.270569         0.501076
 C         2.885007        -0.303094         0.787153
 C         2.761617         1.776484        -0.449295
 O         1.399844         1.372914         0.035417
 H        -0.554099        -0.238567         1.031486
 H        -0.194137        -1.679706         0.068169
 H         0.459976        -1.486311         1.665034
 H         2.420681        -1.501778        -1.344724
 H         1.593039        -0.091363        -2.016880
 H         4.973406        -0.922400        -1.371109
 H         5.453226        -0.075015         0.046806
 H         3.063453         0.060423         1.781198
 H         3.324248         2.333503         0.220128
 H         2.716235         2.176239        -1.410101
