19
Iteration:  1320charge 0 multiplicity 1
 C         0.232427        -0.854196         0.605851
 C         1.495098        -0.132746         0.127149
 C         2.055935         0.215126        -1.225699
 C         3.377029         0.480978        -0.389534
 C         4.458656        -0.462793        -0.896636
 O         3.798112        -1.643214        -0.291700
 C         2.911876        -0.674365         0.513976
 C         2.795816         1.693806         0.302237
 O         1.614619         1.223024         0.832209
 H        -0.411566        -0.052701         1.153056
 H        -0.445961        -1.205848        -0.245474
 H         0.384821        -1.737925         1.262781
 H         2.182504        -0.671502        -1.896963
 H         1.739751         1.058089        -1.819039
 H         4.638127        -0.327894        -2.013592
 H         5.532590        -0.330415        -0.460932
 H         3.018154        -0.778040         1.582714
 H         3.362023         2.221487         1.258441
 H         2.630681         2.541129        -0.346421
