19
Iteration:  4866
 C         0.197762        -0.746713         0.352889
 C         1.505986        -0.106756         0.277128
 C         1.984090         1.060881        -0.561794
 C         3.401381         0.465816        -0.225461
 C         4.204019         0.063339        -1.399314
 O         3.251821        -1.061283        -1.551152
 C         2.734023        -0.875878        -0.113397
 C         3.416602         0.791945         1.219902
 O         2.055707         0.354295         1.644207
 H         0.055503        -1.536148        -0.425572
 H        -0.004547        -1.236673         1.385171
 H        -0.656118         0.077577         0.316668
 H         1.672452         1.019487        -1.623578
 H         1.676850         2.045528        -0.265269
 H         4.354503         0.538026        -2.389073
 H         5.097897        -0.638965        -1.204831
 H         3.061979        -1.639522         0.466661
 H         4.163631         0.200000         1.683735
 H         3.484407         1.830068         1.524977
