19
Iteration:  2010
 C         0.187122        -0.795854         0.506137
 C         1.490633        -0.146320         0.263101
 C         1.869561         0.516073        -1.069048
 C         3.258991         0.461126        -0.358998
 C         4.368371        -0.251464        -1.090077
 O         3.735886        -1.581912        -0.837181
 C         2.895687        -0.858764         0.355327
 C         3.138413         1.498945         0.728835
 O         1.748409         1.052039         1.143193
 H        -0.423831        -0.423413         1.339304
 H        -0.353426        -0.511391        -0.372445
 H         0.332943        -1.851877         0.555068
 H         1.634822        -0.190095        -1.965993
 H         1.412956         1.488852        -1.306326
 H         4.428028        -0.004313        -2.170761
 H         5.370068        -0.225845        -0.673598
 H         3.320400        -1.430524         1.235858
 H         3.931611         1.195004         1.533500
 H         3.248394         2.529090         0.472006
