19
Iteration:  1994
 C         0.181796        -0.778770         0.438593
 C         1.526760        -0.143403         0.271183
 C         1.807294         0.380157        -1.047855
 C         3.298405         0.578051        -0.435348
 C         4.373330        -0.292256        -1.059671
 O         3.601940        -1.493876        -0.771398
 C         2.922861        -0.799405         0.278289
 C         3.158514         1.425728         0.774256
 O         1.836673         1.011803         1.126069
 H        -0.057102        -0.719331         1.511505
 H        -0.670589        -0.417081        -0.247450
 H         0.224635        -1.891857         0.141816
 H         1.905860        -0.302795        -1.846093
 H         1.168462         1.251633        -1.303128
 H         4.722285        -0.224099        -2.089925
 H         5.315589        -0.183620        -0.448451
 H         3.284370        -0.886863         1.270294
 H         3.924398         1.270484         1.656231
 H         3.092034         2.559467         0.609693
