19
Iteration:  4194charge 0 multiplicity 1
 C         0.016027        -0.691381         0.505504
 C         1.427655        -0.140369         0.233071
 C         1.917085         1.031709        -0.597364
 C         3.347968         0.502431        -0.193146
 C         4.253227         0.100678        -1.352516
 O         3.393795        -1.146289        -1.561730
 C         2.730010        -0.937659        -0.281094
 C         3.467025         0.803578         1.261742
 O         2.110862         0.384080         1.576838
 H        -0.365966        -0.706882        -0.517618
 H         0.190658        -1.641102         0.937781
 H        -0.565064        -0.033949         1.061446
 H         1.885232         0.832881        -1.679871
 H         1.618615         2.052577        -0.126853
 H         4.327665         0.719722        -2.204198
 H         5.221811        -0.181990        -0.973727
 H         2.991156        -1.782311         0.564855
 H         4.164709         0.197577         1.787736
 H         3.703137         1.884587         1.543858
