19
Iteration:  4281charge 0 multiplicity 1
 C         0.098751        -0.732551         0.460779
 C         1.536736        -0.145412         0.265004
 C         1.926781         1.040858        -0.616049
 C         3.387634         0.548208        -0.202662
 C         4.236422         0.053013        -1.331762
 O         3.264792        -1.070999        -1.616381
 C         2.774176        -0.929823        -0.225787
 C         3.463122         0.775592         1.321281
 O         2.050576         0.380849         1.564510
 H        -0.140213        -1.497225        -0.265354
 H        -0.111766        -1.160035         1.381662
 H        -0.621339         0.007691         0.402398
 H         1.752422         0.947124        -1.755262
 H         1.671840         2.109035        -0.183841
 H         4.360889         0.710319        -2.162897
 H         5.195392        -0.381632        -0.990754
 H         3.159902        -1.748429         0.530654
 H         4.143831         0.101728         1.787048
 H         3.612352         1.812955         1.585615
