19
Iteration:    32charge 0 multiplicity 1
 C         0.168030        -0.894021         0.736158
 C         1.453141        -0.232365         0.182047
 C         2.061967        -0.739567        -1.173644
 C         3.235556         0.280804        -0.586217
 C         4.625343        -0.285558        -0.199731
 O         4.077572        -1.080946         0.765768
 C         2.948294        -0.183716         0.844362
 C         2.743357         1.629488        -0.798777
 O         1.415227         1.320670        -0.176925
 H        -0.806527        -0.322330         0.792393
 H        -0.121466        -1.693139        -0.001342
 H         0.396282        -1.376540         1.713619
 H         2.399791        -1.766592        -1.120841
 H         1.414658        -0.560579        -2.068222
 H         5.072448        -0.945994        -1.024775
 H         5.312204         0.471006         0.198703
 H         3.023546         0.499798         1.658538
 H         3.176924         2.385368        -0.252060
 H         2.578461         1.781306        -1.793704
