19
Iteration:  4223
 C         0.172794        -0.646254         0.369807
 C         1.585621        -0.127032         0.247969
 C         2.017434         0.989738        -0.586766
 C         3.413741         0.594461        -0.216688
 C         4.188900        -0.014723        -1.457034
 O         3.179123        -1.063081        -1.517397
 C         2.834833        -0.880337        -0.156520
 C         3.310801         0.852952         1.288605
 O         2.036028         0.221671         1.635584
 H        -0.130009        -1.139121        -0.529204
 H         0.270488        -1.344586         1.250679
 H        -0.584583         0.216278         0.506337
 H         1.851774         0.849456        -1.589248
 H         1.660330         2.055332        -0.257140
 H         4.312290         0.573465        -2.403050
 H         5.206228        -0.419992        -1.164462
 H         3.238586        -1.643204         0.599105
 H         4.212628         0.394786         1.833486
 H         3.378792         1.866415         1.545330
