19
Iteration:  4837
 C         0.110188        -0.800617         0.442956
 C         1.511724        -0.066722         0.243827
 C         1.972822         1.145169        -0.597975
 C         3.468877         0.577388        -0.193907
 C         4.181909        -0.004231        -1.371442
 O         3.215401        -1.133198        -1.567321
 C         2.804585        -0.845173        -0.198737
 C         3.387101         0.801741         1.324027
 O         2.089969         0.323769         1.526462
 H         0.127659        -1.478013        -0.415193
 H         0.159079        -1.392830         1.322863
 H        -0.718026        -0.106290         0.538981
 H         1.687683         1.119172        -1.590413
 H         1.642646         2.111920        -0.177631
 H         4.352497         0.468430        -2.295454
 H         4.967409        -0.559050        -1.087461
 H         3.214333        -1.716386         0.542482
 H         4.171999         0.145448         1.866132
 H         3.414866         1.847028         1.712977
