19
Iteration:   812charge 0 multiplicity 1
 C         0.146792        -0.731850         0.574208
 C         1.509025        -0.180705         0.177904
 C         2.104758        -0.261902        -1.199746
 C         3.313580         0.453257        -0.519947
 C         4.607815        -0.460628        -0.731183
 O         3.882556        -1.472670         0.156063
 C         2.957111        -0.522651         0.661123
 C         2.694427         1.821789        -0.069492
 O         1.508426         1.241798         0.500192
 H        -0.514532        -1.015835        -0.259854
 H         0.431811        -1.593856         1.263771
 H        -0.425680         0.038055         1.097781
 H         2.473874        -1.283126        -1.230699
 H         1.566961         0.144794        -2.182389
 H         4.921291        -0.940135        -1.672617
 H         5.536081         0.048583        -0.291476
 H         3.096595        -0.448247         1.739052
 H         3.281525         2.170321         0.829097
 H         2.528928         2.360270        -0.933788
