19
Iteration:  4326
 C         0.076406        -0.613468         0.554582
 C         1.515514        -0.141408         0.218858
 C         1.961837         1.044578        -0.635292
 C         3.374968         0.504686        -0.190099
 C         4.208546         0.036375        -1.312370
 O         3.354979        -1.093828        -1.590979
 C         2.757947        -0.945907        -0.223490
 C         3.358157         0.886737         1.247385
 O         2.093599         0.213977         1.579001
 H        -0.481051        -0.728334        -0.386305
 H         0.095740        -1.573103         0.970238
 H        -0.412991         0.009629         1.227362
 H         1.943386         0.956778        -1.866079
 H         1.666685         2.125199        -0.432220
 H         4.225993         0.831162        -2.058285
 H         5.238760        -0.220936        -1.029370
 H         3.152501        -1.808936         0.302983
 H         4.161460         0.407886         1.731291
 H         3.347017         1.986484         1.370229
