19
Iteration:  1651
 C         0.267923        -0.862767         0.516341
 C         1.513155        -0.136695         0.224262
 C         1.918396         0.265300        -1.176113
 C         3.323212         0.494444        -0.425058
 C         4.424506        -0.381474        -0.950048
 O         3.643360        -1.545969        -0.646765
 C         2.950671        -0.701074         0.476714
 C         3.049551         1.607447         0.552871
 O         1.645974         1.133355         1.012430
 H         0.402455        -1.887774         0.140694
 H         0.048900        -0.788416         1.624594
 H        -0.627707        -0.410597        -0.029756
 H         1.930321        -0.533185        -1.875477
 H         1.355751         1.116543        -1.554953
 H         4.575530        -0.320534        -2.036507
 H         5.335773        -0.388831        -0.373457
 H         3.404080        -0.791953         1.427216
 H         3.838117         1.709138         1.418422
 H         2.889815         2.660900         0.344881
