19
Iteration:  3606charge 0 multiplicity 1
 C         0.153444        -0.701160         0.469299
 C         1.509134        -0.108595         0.263738
 C         1.909803         0.982330        -0.649137
 C         3.430738         0.610005        -0.217782
 C         4.271774        -0.039168        -1.339586
 O         3.224933        -1.103695        -1.540408
 C         2.816910        -0.830807        -0.200683
 C         3.347719         0.898339         1.275955
 O         2.072755         0.283104         1.585658
 H        -0.251874        -0.409990         1.425959
 H        -0.416806        -0.350134        -0.516940
 H         0.163919        -1.819300         0.517351
 H         1.850567         0.614587        -1.718793
 H         1.538373         1.939815        -0.683603
 H         4.506385         0.486681        -2.325924
 H         5.156612        -0.598236        -0.983734
 H         3.235355        -1.647889         0.404119
 H         4.064025         0.421943         1.996154
 H         3.267939         1.938772         1.495255
