19
Iteration:   440
 C         0.318314        -0.782986         0.652449
 C         1.594130        -0.191056         0.115375
 C         2.127710        -0.406100        -1.250099
 C         3.328425         0.382043        -0.737337
 C         4.571040        -0.502062        -0.432360
 O         3.911145        -1.299013         0.588325
 C         2.957362        -0.334950         0.730917
 C         2.612467         1.727213        -0.448019
 O         1.387099         1.236171         0.268531
 H        -0.570850        -0.770055        -0.068615
 H         0.497181        -1.802671         0.933446
 H         0.094307        -0.235784         1.603637
 H         2.285052        -1.511582        -1.371643
 H         1.452719         0.006248        -2.036664
 H         4.888032        -1.019237        -1.299937
 H         5.379995         0.091888         0.032707
 H         2.907570        -0.023425         1.768153
 H         2.962146         2.501476         0.131003
 H         2.376269         2.260358        -1.396088
