19
Iteration:  4000charge 0 multiplicity 1
 C         0.116034        -0.630489         0.484792
 C         1.545491        -0.231358         0.227564
 C         1.939816         1.044985        -0.676942
 C         3.332966         0.542622        -0.224468
 C         4.261319         0.051251        -1.304855
 O         3.237544        -1.083156        -1.596249
 C         2.863467        -0.893139        -0.211852
 C         3.342882         0.834405         1.293509
 O         2.083890         0.277969         1.610185
 H        -0.432507        -0.680023        -0.506403
 H        -0.033980        -1.542802         1.119721
 H        -0.219872         0.257306         1.028657
 H         1.727371         0.685103        -1.724526
 H         1.682719         1.996451        -0.324957
 H         4.394090         0.616472        -2.289604
 H         5.179756        -0.444162        -1.034696
 H         3.393986        -1.587378         0.559583
 H         4.179923         0.298993         1.717339
 H         3.313479         1.835992         1.729297
