19
Iteration:  1034
 C         0.279788        -0.804976         0.608117
 C         1.515939        -0.169479         0.153546
 C         2.021860        -0.056990        -1.274672
 C         3.294419         0.476103        -0.453282
 C         4.479380        -0.386197        -0.735527
 O         3.769468        -1.564315        -0.052094
 C         2.975510        -0.554823         0.599999
 C         2.870216         1.737680         0.072528
 O         1.514060         1.215406         0.635252
 H         0.568269        -1.818822         0.799860
 H        -0.033196        -0.277333         1.474240
 H        -0.510191        -0.744649        -0.164130
 H         2.160308        -1.108215        -1.694163
 H         1.654326         0.612126        -2.021031
 H         4.740998        -0.576567        -1.810776
 H         5.407216        -0.291366        -0.162761
 H         3.234187        -0.566569         1.641344
 H         3.519093         2.022534         1.030301
 H         2.626943         2.625613        -0.501269
