19
Iteration:  2967charge 0 multiplicity 1
 C         0.129352        -0.697118         0.527435
 C         1.503107        -0.136745         0.240278
 C         1.878992         0.851327        -0.847394
 C         3.270007         0.519233        -0.310665
 C         4.298971        -0.124994        -1.241711
 O         3.556456        -1.363578        -1.363046
 C         2.816406        -1.004205         0.015956
 C         3.295430         1.186978         1.112112
 O         1.942703         0.643939         1.437452
 H        -0.380101        -0.114089         1.287359
 H        -0.340682        -0.764348        -0.370895
 H         0.142091        -1.622620         1.038154
 H         1.722898         0.485555        -1.840639
 H         1.403451         1.994286        -0.643619
 H         4.533736         0.234583        -2.244662
 H         5.300617        -0.267851        -0.709945
 H         3.225035        -1.531654         0.934356
 H         4.058619         0.889923         1.856740
 H         3.197114         2.249457         1.100841
