19
Iteration:  3540
 C         0.198261        -0.624227         0.516638
 C         1.547543        -0.114946         0.250699
 C         1.972264         0.974683        -0.757251
 C         3.350517         0.574071        -0.243535
 C         4.174218         0.006805        -1.402194
 O         3.365061        -1.157789        -1.466210
 C         2.863651        -0.871246        -0.154995
 C         3.300972         0.834989         1.252889
 O         1.962345         0.308226         1.612193
 H         0.261883        -1.470126         1.212355
 H        -0.419477         0.359162         0.874984
 H        -0.389625        -1.061655        -0.302207
 H         1.926371         0.694278        -1.847040
 H         1.630634         1.923063        -0.680096
 H         4.180263         0.678884        -2.301395
 H         5.214111        -0.217620        -1.162059
 H         3.159457        -1.569190         0.635451
 H         4.064563         0.269317         1.720811
 H         3.397024         1.797229         1.522988
