19
Iteration:  2770
 C         0.106026        -0.714188         0.531427
 C         1.484363        -0.185670         0.186143
 C         1.921656         0.785291        -1.012222
 C         3.361632         0.588408        -0.269339
 C         4.336549        -0.190124        -1.276054
 O         3.434147        -1.380716        -1.141560
 C         2.939193        -0.787371         0.136671
 C         3.193486         1.290285         1.035189
 O         1.955683         0.542901         1.417287
 H        -0.517192        -0.826389        -0.439290
 H         0.190343        -1.755634         0.775388
 H        -0.419677        -0.054405         1.245353
 H         1.889371         0.367956        -1.900199
 H         1.538096         1.736165        -1.051229
 H         4.327729         0.142049        -2.284722
 H         5.337342        -0.396251        -0.947856
 H         3.247792        -1.365475         1.054793
 H         4.029809         0.859450         1.706846
 H         3.179557         2.431879         1.009528
