19
Iteration:  1076
 C         0.173831        -0.806154         0.569034
 C         1.489828        -0.144596         0.161776
 C         1.978087         0.078745        -1.253598
 C         3.303201         0.422546        -0.506433
 C         4.562127        -0.431885        -0.787107
 O         3.897012        -1.595578        -0.009066
 C         2.965282        -0.644017         0.586525
 C         2.826014         1.749904         0.069776
 O         1.547049         1.216489         0.732982
 H         0.227994        -1.235262         1.572096
 H        -0.655583        -0.099354         0.530858
 H        -0.044208        -1.650366        -0.166307
 H         2.130162        -0.919281        -1.813389
 H         1.358936         0.715603        -1.813494
 H         4.664120        -0.580103        -1.837814
 H         5.443313        -0.112012        -0.280984
 H         3.144523        -0.366474         1.593555
 H         3.516560         2.254403         0.813800
 H         2.687214         2.548552        -0.683149
