19
Iteration:  3494
 C         0.140909        -0.807988         0.387986
 C         1.453413        -0.173634         0.303278
 C         1.969819         1.027099        -0.604092
 C         3.342190         0.495218        -0.260715
 C         4.340216        -0.054981        -1.304632
 O         3.246440        -1.157300        -1.565236
 C         2.768166        -0.944816        -0.163503
 C         3.388818         1.025124         1.167590
 O         2.059377         0.493130         1.655836
 H         0.196454        -1.911625         0.120604
 H        -0.381173        -0.546887         1.374189
 H        -0.576232        -0.457627        -0.329929
 H         1.632722         0.767142        -1.604158
 H         1.766874         2.084385        -0.383501
 H         4.706892         0.448992        -2.250064
 H         5.250899        -0.441810        -0.780243
 H         3.261531        -1.615712         0.576951
 H         4.187297         0.650139         1.861117
 H         3.369052         2.034815         1.209360
