19
Iteration:  4997charge 0 multiplicity 1
 C         0.153281        -0.759102         0.414480
 C         1.547516        -0.164820         0.235157
 C         2.001246         1.059573        -0.632843
 C         3.473680         0.486528        -0.195013
 C         4.234993        -0.050197        -1.480420
 O         3.153639        -1.047465        -1.577547
 C         2.828416        -0.874080        -0.166233
 C         3.362166         0.932496         1.370665
 O         2.051097         0.351764         1.675391
 H        -0.182317        -1.028232        -0.575890
 H         0.038673        -1.631322         1.043121
 H        -0.567143        -0.026531         0.764932
 H         1.769659         0.965509        -1.763383
 H         1.731645         2.090382        -0.213768
 H         4.242915         0.493973        -2.414765
 H         5.167415        -0.671012        -1.296194
 H         3.063957        -1.917354         0.358811
 H         4.007750         0.442816         2.061214
 H         3.389648         2.026989         1.478357
