19
Iteration:  4304charge 0 multiplicity 1
 C         0.141817        -0.623169         0.565163
 C         1.517122        -0.106997         0.225563
 C         1.895475         1.028502        -0.662638
 C         3.368775         0.572450        -0.258274
 C         4.319638         0.045332        -1.432644
 O         3.316942        -1.084138        -1.539638
 C         2.776776        -0.841402        -0.222360
 C         3.378138         0.726660         1.370260
 O         1.993051         0.243633         1.551012
 H        -0.338444        -1.228886        -0.205098
 H         0.270412        -1.289014         1.354904
 H        -0.496195         0.065476         0.939710
 H         1.834979         0.740132        -1.830769
 H         1.716728         2.146023        -0.557615
 H         4.381403         0.680236        -2.295598
 H         5.306594        -0.293362        -1.099703
 H         3.175079        -1.608521         0.554751
 H         4.030752         0.031072         1.803851
 H         3.535703         1.763200         1.682509
