19
Iteration:  1800charge 0 multiplicity 1
 C         0.141381        -0.866842         0.578801
 C         1.493849        -0.137736         0.147265
 C         1.892068         0.386107        -1.139815
 C         3.343557         0.551464        -0.446121
 C         4.445037        -0.383317        -0.991928
 O         3.669210        -1.524243        -0.672301
 C         2.898708        -0.741697         0.368708
 C         3.075642         1.566424         0.656534
 O         1.742362         1.062428         1.058016
 H        -0.739861        -0.305282         0.709287
 H        -0.046570        -1.676543        -0.128001
 H         0.332692        -1.355950         1.551136
 H         1.890352        -0.379601        -1.885925
 H         1.411072         1.382749        -1.480910
 H         4.658525        -0.399138        -2.086674
 H         5.440846        -0.231109        -0.425259
 H         3.351532        -0.963610         1.387382
 H         3.848342         1.478841         1.404972
 H         2.938642         2.532747         0.263860
