19
Iteration:  3884
 C         0.126135        -0.659897         0.592033
 C         1.500221        -0.153142         0.333073
 C         1.993630         1.036757        -0.615069
 C         3.400020         0.469519        -0.194774
 C         4.242995         0.076168        -1.347989
 O         3.371027        -1.090810        -1.629816
 C         2.659626        -0.939344        -0.249132
 C         3.358664         0.874306         1.247263
 O         2.063641         0.268993         1.509351
 H        -0.219610        -1.453503        -0.138480
 H        -0.148676        -1.056524         1.631207
 H        -0.577553         0.154003         0.220836
 H         1.830390         0.918577        -1.723283
 H         1.812594         2.080109        -0.147576
 H         4.318970         0.857229        -2.098676
 H         5.331792        -0.191554        -1.007052
 H         2.833068        -1.878354         0.223613
 H         4.282219         0.474876         1.881649
 H         3.362443         1.960839         1.448579
