19
Iteration:  1743
 C         0.091140        -0.751024         0.547130
 C         1.526827        -0.254113         0.212280
 C         1.957382         0.238387        -1.207392
 C         3.297089         0.583124        -0.440964
 C         4.478658        -0.309272        -1.081517
 O         3.645439        -1.535573        -0.590052
 C         2.960295        -0.740810         0.344393
 C         3.053499         1.592260         0.674372
 O         1.714027         1.043376         1.117773
 H        -0.283721        -0.602778         1.592061
 H        -0.576416        -0.179544        -0.105643
 H        -0.062177        -1.804723         0.257276
 H         2.217584        -0.592725        -1.868190
 H         1.348858         1.018838        -1.770322
 H         4.563202        -0.384913        -2.181012
 H         5.464650        -0.274479        -0.515925
 H         3.478567        -0.768788         1.349758
 H         3.968704         1.733557         1.350579
 H         2.903926         2.609802         0.438393
