19
Iteration:   212
 C         0.226251        -0.802526         0.684742
 C         1.512700        -0.187309         0.223689
 C         2.149213        -0.654003        -1.104497
 C         3.279442         0.313723        -0.668855
 C         4.608569        -0.300427        -0.414348
 O         3.916794        -1.239008         0.675693
 C         2.982682        -0.174818         0.735917
 C         2.725971         1.657285        -0.574362
 O         1.342787         1.191344        -0.020820
 H        -0.570326        -0.006582         0.753817
 H        -0.053728        -1.580284        -0.023241
 H         0.384264        -1.303480         1.641026
 H         2.444718        -1.697853        -1.110529
 H         1.618439        -0.307776        -2.025923
 H         5.177296        -0.871283        -1.121507
 H         5.219644         0.421558         0.191203
 H         3.209756         0.507657         1.639310
 H         3.264822         2.406850        -0.009640
 H         2.484612         2.166224        -1.427589
