19
Iteration:   628charge 0 multiplicity 1
 C         0.148491        -0.714210         0.664208
 C         1.404384        -0.205790         0.100910
 C         2.079370        -0.316305        -1.277753
 C         3.319650         0.331139        -0.514615
 C         4.662982        -0.396272        -0.591591
 O         4.012985        -1.386157         0.393715
 C         2.973009        -0.433863         0.701437
 C         2.689520         1.690834        -0.298337
 O         1.443800         1.248481         0.374285
 H        -0.658309        -0.493774        -0.050137
 H         0.205317        -1.856820         0.652939
 H        -0.075792        -0.375920         1.685846
 H         2.206842        -1.380984        -1.580253
 H         1.500310         0.369373        -1.996425
 H         4.983247        -0.822805        -1.541523
 H         5.483957         0.164504        -0.145731
 H         3.121323        -0.112472         1.772638
 H         3.198222         2.306070         0.438726
 H         2.555746         2.132066        -1.356779
