19
Iteration:  1006charge 0 multiplicity 1
 C         0.135989        -0.889476         0.655011
 C         1.463346        -0.219364         0.247000
 C         1.998434        -0.040371        -1.176727
 C         3.335270         0.460019        -0.438650
 C         4.613517        -0.416182        -0.739251
 O         3.892820        -1.563310        -0.103756
 C         2.898339        -0.581042         0.580389
 C         2.872675         1.740874         0.049633
 O         1.505473         1.370171         0.529223
 H         0.046528        -1.714521        -0.103112
 H         0.202346        -1.232079         1.747272
 H        -0.639403        -0.146560         0.484439
 H         2.176472        -0.989704        -1.584796
 H         1.490175         0.635940        -1.976540
 H         4.819029        -0.629183        -1.793927
 H         5.457834        -0.288687        -0.051604
 H         3.178699        -0.775975         1.669744
 H         3.452891         2.109970         0.830199
 H         2.786140         2.661624        -0.590002
