19
Iteration:   560charge 0 multiplicity 1
 C         0.325873        -0.879753         0.675489
 C         1.494484        -0.141660         0.180887
 C         2.027236        -0.345255        -1.231913
 C         3.321726         0.378836        -0.566853
 C         4.534026        -0.448729        -0.503282
 O         3.962404        -1.420494         0.396250
 C         2.913386        -0.430546         0.765642
 C         2.748070         1.738176        -0.369407
 O         1.380082         1.389575         0.192308
 H         0.194588        -0.930985         1.784834
 H        -0.595364        -0.597404         0.213742
 H         0.540144        -1.925096         0.365624
 H         2.265273        -1.450374        -1.315421
 H         1.490976         0.251516        -2.027150
 H         5.116963        -0.887178        -1.293650
 H         5.264522         0.081697         0.133671
 H         3.133746         0.112885         1.674062
 H         3.211668         2.220214         0.522301
 H         2.671253         2.365831        -1.312076
