19
Iteration:  1027charge 0 multiplicity 1
 C         0.252876        -0.825063         0.589129
 C         1.512044        -0.118002         0.157584
 C         2.002984        -0.126763        -1.263370
 C         3.298671         0.445774        -0.444272
 C         4.480256        -0.386712        -0.735104
 O         3.827334        -1.594421        -0.124224
 C         2.941781        -0.590444         0.678381
 C         2.853273         1.763330         0.120503
 O         1.520868         1.275612         0.601797
 H         0.562852        -1.893911         0.636686
 H         0.114244        -0.467517         1.655503
 H        -0.618750        -0.695312        -0.032655
 H         2.134536        -1.026406        -1.770463
 H         1.750968         0.714201        -1.991813
 H         4.671496        -0.685456        -1.793665
 H         5.336810        -0.037259        -0.087108
 H         3.224631        -0.332214         1.766525
 H         3.453630         2.137453         0.866981
 H         2.845691         2.629138        -0.557001
