19
Iteration:   838charge 0 multiplicity 1
 C         0.172531        -0.862204         0.618893
 C         1.531412        -0.190493         0.218258
 C         2.010201        -0.193693        -1.313366
 C         3.267014         0.383490        -0.553237
 C         4.576754        -0.419597        -0.635483
 O         3.884581        -1.503044         0.102007
 C         2.915788        -0.414206         0.708886
 C         2.881942         1.754880        -0.041908
 O         1.481133         1.288163         0.472777
 H         0.044162        -1.843321         0.161055
 H         0.145352        -0.897457         1.684630
 H        -0.614119        -0.226890         0.203805
 H         2.095597        -1.262524        -1.638143
 H         1.482867         0.424872        -1.983004
 H         4.983613        -0.787101        -1.617109
 H         5.369079         0.135657        -0.111360
 H         3.234235        -0.157979         1.749317
 H         3.465384         2.021625         0.764002
 H         2.828034         2.524748        -0.862052
