19
Iteration:  4660charge 0 multiplicity 1
 C         0.128481        -0.684557         0.455099
 C         1.535234        -0.086901         0.278036
 C         1.996596         1.090061        -0.550946
 C         3.385402         0.499195        -0.264345
 C         4.226753         0.028821        -1.358082
 O         3.232536        -1.062423        -1.551536
 C         2.788483        -0.942789        -0.217464
 C         3.429348         0.891405         1.205830
 O         2.029532         0.201945         1.625284
 H        -0.028673        -1.401024        -0.279143
 H        -0.066065        -1.065281         1.416367
 H        -0.586486         0.149040         0.345942
 H         1.935872         0.840654        -1.700136
 H         1.650325         2.118640        -0.297012
 H         4.337046         0.648770        -2.289818
 H         5.297336        -0.386546        -1.108083
 H         3.137810        -1.877055         0.392056
 H         4.212292         0.399963         1.869534
 H         3.185415         1.969405         1.447398
