19
Iteration:   193charge 0 multiplicity 1
 C         0.193394        -0.822042         0.671865
 C         1.471646        -0.232412         0.186259
 C         2.188684        -0.692345        -1.113986
 C         3.318714         0.316362        -0.517993
 C         4.613504        -0.386694        -0.437317
 O         4.078027        -1.226827         0.623117
 C         2.855842        -0.185277         0.910082
 C         2.614192         1.678940        -0.632633
 O         1.365529         1.342856        -0.084921
 H        -0.270639        -0.063965         1.365920
 H        -0.489231        -1.099741        -0.117987
 H         0.383303        -1.753392         1.232978
 H         2.573070        -1.718129        -1.005542
 H         1.671478        -0.602986        -2.120647
 H         4.839305        -0.959443        -1.386933
 H         5.451552         0.211399        -0.112136
 H         3.066721         0.404303         1.879932
 H         3.164042         2.502976         0.062315
 H         2.596612         2.305664        -1.631391
