19
Iteration:  4734
 C         0.078603        -0.707981         0.453787
 C         1.471769        -0.105611         0.233088
 C         1.943342         1.127581        -0.645380
 C         3.349856         0.559290        -0.235923
 C         4.221494         0.048919        -1.377125
 O         3.330817        -1.143473        -1.533786
 C         2.761891        -0.885685        -0.216852
 C         3.464112         0.813805         1.282107
 O         2.083027         0.270256         1.653694
 H        -0.441915        -0.803797        -0.551064
 H         0.439103        -1.705791         0.991623
 H        -0.584324         0.090396         1.085890
 H         1.848051         0.824327        -1.746536
 H         1.629832         2.054790        -0.309875
 H         4.229628         0.523155        -2.381659
 H         5.200598        -0.343175        -1.286318
 H         3.029031        -1.825375         0.411191
 H         4.163064         0.246662         1.869753
 H         3.526612         1.881214         1.629908
