19
Iteration:   796
 C         0.159835        -0.735450         0.608089
 C         1.481200        -0.249630         0.139427
 C         2.084713        -0.217527        -1.280392
 C         3.347389         0.405551        -0.478924
 C         4.569672        -0.461908        -0.661310
 O         3.990467        -1.493469         0.154084
 C         2.935472        -0.478808         0.747830
 C         2.719625         1.774667        -0.151560
 O         1.475473         1.245016         0.519282
 H        -0.554679        -0.381043        -0.183901
 H         0.064766        -1.787039         0.759354
 H        -0.059649        -0.187332         1.566813
 H         2.210581        -1.163630        -1.861219
 H         1.626423         0.486550        -1.872908
 H         4.671311        -0.744062        -1.719024
 H         5.511714        -0.222195        -0.238359
 H         3.165023        -0.204803         1.802762
 H         3.224779         2.480920         0.495447
 H         2.270976         2.440741        -1.022678
