19
Iteration:  2906charge 0 multiplicity 1
 C         0.199036        -0.753176         0.403786
 C         1.557825        -0.140602         0.290895
 C         1.853569         0.765645        -0.866983
 C         3.341051         0.589461        -0.320211
 C         4.375975        -0.175452        -1.271257
 O         3.370995        -1.292403        -1.218935
 C         2.856827        -0.888197         0.023759
 C         3.271280         1.175925         1.095631
 O         1.946886         0.617876         1.491170
 H        -0.089187        -0.820577         1.460668
 H        -0.578351         0.096590         0.070277
 H         0.017276        -1.652536        -0.248035
 H         1.611461         0.157368        -1.840081
 H         1.352186         1.724667        -0.877059
 H         4.377162         0.263552        -2.289089
 H         5.346115        -0.472512        -0.919507
 H         3.303163        -1.393331         0.833890
 H         4.105131         0.903351         1.722152
 H         3.157830         2.279301         1.027159
