19
Iteration:   897charge 0 multiplicity 1
 C         0.233534        -0.810268         0.624697
 C         1.497930        -0.187065         0.169012
 C         2.117986        -0.176264        -1.258690
 C         3.351988         0.479663        -0.529562
 C         4.547408        -0.463351        -0.651312
 O         3.810136        -1.500487         0.031635
 C         2.919530        -0.467127         0.616904
 C         2.745897         1.764919         0.011158
 O         1.538327         1.229714         0.536113
 H         0.249102        -0.612108         1.751632
 H        -0.701797        -0.261435         0.244700
 H         0.042953        -1.886582         0.365369
 H         2.075347        -1.227638        -1.489784
 H         1.547805         0.434737        -2.019286
 H         4.674576        -0.825714        -1.666662
 H         5.541588        -0.222209        -0.256804
 H         3.255668        -0.358585         1.674095
 H         3.401274         2.191582         0.921060
 H         2.522861         2.605715        -0.825111
