19
Iteration:  4765
 C         0.090880        -0.517968         0.493502
 C         1.521255        -0.126737         0.275212
 C         1.892824         1.015895        -0.618111
 C         3.321663         0.516842        -0.277665
 C         4.256618         0.092866        -1.367726
 O         3.346968        -1.105365        -1.519959
 C         2.854073        -0.949588        -0.173634
 C         3.394983         0.838681         1.243760
 O         2.079527         0.189177         1.557141
 H        -0.552757        -0.556750        -0.456688
 H        -0.032277        -1.702801         0.810063
 H        -0.414038        -0.011266         1.474688
 H         1.744979         0.859800        -1.803380
 H         1.561851         2.037549        -0.290392
 H         4.201666         0.730121        -2.322575
 H         5.299413        -0.427621        -1.154976
 H         3.198116        -1.755024         0.414041
 H         4.050192         0.321956         1.893836
 H         3.290450         1.894120         1.488663
