19
Iteration:  4882
 C         0.035942        -0.677337         0.396807
 C         1.517404        -0.140014         0.322057
 C         1.990960         0.969952        -0.642926
 C         3.395316         0.515813        -0.183342
 C         4.237362         0.034788        -1.364377
 O         3.189945        -1.039141        -1.564799
 C         2.820818        -0.941437        -0.183749
 C         3.447906         0.890378         1.296536
 O         2.104492         0.288737         1.580532
 H         0.097077        -1.311808        -0.500705
 H        -0.078068        -1.317235         1.233057
 H        -0.709478         0.132608         0.469935
 H         1.837188         0.813426        -1.767330
 H         1.723087         2.046198        -0.467044
 H         4.082301         0.759588        -2.160090
 H         5.227115        -0.253632        -1.164877
 H         3.250075        -1.846165         0.519629
 H         4.218655         0.340224         1.958974
 H         3.444421         1.991219         1.489707
