19
Iteration:  3398charge 0 multiplicity 1
 C         0.019694        -0.681760         0.504427
 C         1.479820        -0.191628         0.277793
 C         1.878098         0.985085        -0.787795
 C         3.292225         0.565593        -0.277132
 C         4.304942        -0.021326        -1.268458
 O         3.416683        -1.222182        -1.404688
 C         2.809465        -0.868587        -0.089719
 C         3.401724         0.962772         1.146859
 O         2.103690         0.374534         1.513494
 H        -0.512345        -0.165317        -0.304318
 H        -0.255260        -1.833336         0.582523
 H        -0.400062        -0.325682         1.421294
 H         1.806029         0.608417        -1.882462
 H         1.588498         1.998179        -0.638738
 H         4.293553         0.453423        -2.273140
 H         5.309328        -0.303707        -0.947194
 H         3.308452        -1.429688         0.700103
 H         4.176362         0.532305         1.709350
 H         3.286531         2.195567         1.375493
