19
Iteration:  1671
 C         0.278888        -0.824247         0.626539
 C         1.535995        -0.157451         0.122669
 C         1.977873         0.383814        -1.234639
 C         3.337570         0.539413        -0.504278
 C         4.474797        -0.398700        -0.979556
 O         3.582997        -1.574640        -0.517121
 C         2.909839        -0.685039         0.342088
 C         2.922799         1.644484         0.602540
 O         1.738762         0.970850         1.066327
 H         0.419993        -1.872848         0.784384
 H        -0.133222        -0.401410         1.563418
 H        -0.491457        -0.726140        -0.192466
 H         2.102419        -0.407454        -1.905248
 H         1.512399         1.272937        -1.745610
 H         4.617794        -0.427019        -2.063441
 H         5.402837        -0.312776        -0.457356
 H         3.104743        -0.883239         1.394307
 H         3.402819         1.876412         1.482510
 H         2.815030         2.694571         0.214588
