19
Iteration:  3895charge 0 multiplicity 1
 C         0.063929        -0.664503         0.514165
 C         1.496458        -0.160577         0.230061
 C         1.959408         1.018664        -0.660021
 C         3.401130         0.467156        -0.180302
 C         4.297249         0.037959        -1.339447
 O         3.285232        -1.023055        -1.627133
 C         2.737444        -0.962201        -0.228353
 C         3.400241         0.952230         1.282658
 O         2.107999         0.244067         1.621227
 H        -0.214292        -1.450784        -0.214573
 H         0.085827        -1.113514         1.556525
 H        -0.670325         0.196919         0.591217
 H         1.699431         0.870196        -1.736971
 H         1.705195         2.112645        -0.424162
 H         4.334986         0.639811        -2.235704
 H         5.298640        -0.499558        -1.179366
 H         3.009859        -1.818669         0.355645
 H         4.081984         0.405370         2.037854
 H         3.263517         2.029788         1.469327
