19
Iteration:  2998charge 0 multiplicity 1
 C         0.126624        -0.747907         0.504568
 C         1.479630        -0.100853         0.216408
 C         1.929157         0.775116        -0.907152
 C         3.347500         0.577290        -0.338992
 C         4.357520        -0.144101        -1.280588
 O         3.378341        -1.226684        -1.280246
 C         2.834800        -0.857294         0.069826
 C         3.310670         1.140540         1.114012
 O         1.987142         0.523288         1.459422
 H        -0.723466         0.051752         0.424672
 H        -0.164924        -1.502350        -0.220577
 H         0.258258        -1.174409         1.575924
 H         1.835183         0.261178        -1.821657
 H         1.324603         1.929993        -0.911908
 H         4.545503         0.077539        -2.342289
 H         5.311152        -0.456528        -0.695622
 H         3.068513        -1.326657         1.070916
 H         4.089053         0.712775         1.753725
 H         3.133426         2.146396         1.316694
