19
Iteration:  1714charge 0 multiplicity 1
 C         0.181881        -0.745948         0.536038
 C         1.484935        -0.127533         0.284994
 C         1.894328         0.295910        -1.085678
 C         3.281088         0.470019        -0.400233
 C         4.483258        -0.252926        -1.022505
 O         3.752606        -1.564341        -0.628523
 C         2.874726        -0.846109         0.394369
 C         3.019843         1.536854         0.571746
 O         1.728466         1.072188         0.969939
 H         0.178734        -1.396092         1.366074
 H        -0.587680        -0.008046         0.778323
 H        -0.113476        -1.239896        -0.415317
 H         1.818148        -0.493486        -1.778179
 H         1.373005         1.248513        -1.468260
 H         4.730777        -0.260902        -2.095417
 H         5.452250        -0.148794        -0.485237
 H         3.335723        -0.939431         1.417721
 H         3.828808         1.652956         1.231095
 H         2.802407         2.675778         0.207647
