19
Iteration:  3826
 C         0.140017        -0.628922         0.372478
 C         1.552939        -0.134180         0.295799
 C         1.954197         1.009645        -0.615999
 C         3.343489         0.533421        -0.194772
 C         4.182668         0.054461        -1.378088
 O         3.200596        -1.054338        -1.563189
 C         2.818042        -0.918390        -0.156458
 C         3.431176         0.843972         1.253887
 O         2.097727         0.205718         1.626977
 H         0.131307        -1.592053         0.051286
 H        -0.094592        -0.596245         1.415490
 H        -0.536935         0.025296        -0.094272
 H         1.602603         0.737025        -1.778962
 H         1.732019         2.151093        -0.437583
 H         4.246219         0.786984        -2.214276
 H         5.179619        -0.224099        -0.980731
 H         3.275732        -1.738121         0.433522
 H         4.307182         0.177175         1.678069
 H         3.463743         1.901073         1.540435
