19
Iteration:  2599
 C         0.139870        -0.767693         0.519758
 C         1.539692        -0.166643         0.222747
 C         2.005550         0.708324        -1.020501
 C         3.389340         0.570144        -0.309539
 C         4.371182        -0.311011        -1.245555
 O         3.414811        -1.408843        -1.118236
 C         2.894975        -0.778824         0.105042
 C         3.104681         1.376073         1.050512
 O         1.886564         0.695800         1.411500
 H         0.097616        -0.932359         1.555583
 H        -0.656741        -0.112855         0.300019
 H        -0.051815        -1.670524        -0.012199
 H         1.990331         0.078548        -2.023032
 H         1.503127         1.749256        -1.247956
 H         4.445416         0.085175        -2.286582
 H         5.390606        -0.739559        -0.978346
 H         3.455689        -1.219062         0.983592
 H         3.859140         1.286444         1.836726
 H         2.953852         2.495757         0.873848
