19
Iteration:  2950charge 0 multiplicity 1
 C         0.069950        -0.706727         0.535746
 C         1.456681        -0.186041         0.218137
 C         1.924684         0.804872        -0.794917
 C         3.437756         0.466813        -0.240872
 C         4.350375        -0.093654        -1.310677
 O         3.512365        -1.321344        -1.253554
 C         2.825652        -0.913271         0.012395
 C         3.223517         1.201487         1.003927
 O         1.957327         0.619109         1.439862
 H        -0.298518        -0.170306         1.439906
 H        -0.773820        -0.475324        -0.301738
 H         0.179872        -1.845849         0.708524
 H         1.741482         0.614333        -1.907526
 H         1.622491         1.787319        -0.537230
 H         4.274963         0.436824        -2.287643
 H         5.364280        -0.330365        -1.031346
 H         2.981284        -1.714259         0.706701
 H         3.944133         0.871489         1.759186
 H         3.146231         2.353321         0.943783
