19
Iteration:  2764charge 0 multiplicity 1
 C         0.159748        -0.730843         0.511082
 C         1.468437        -0.145886         0.167077
 C         1.904728         0.791542        -0.977622
 C         3.351451         0.577190        -0.263318
 C         4.321558        -0.187411        -1.276123
 O         3.416623        -1.385590        -1.107578
 C         2.967252        -0.799954         0.136867
 C         3.185383         1.282840         1.075620
 O         1.973977         0.558028         1.342564
 H        -0.484365        -0.602088        -0.321371
 H         0.148934        -1.820764         0.805180
 H        -0.235453        -0.138000         1.346956
 H         1.899754         0.212507        -2.076260
 H         1.310696         1.822884        -1.006447
 H         4.361534         0.177064        -2.353123
 H         5.361328        -0.509575        -0.963548
 H         3.246595        -1.364907         1.000077
 H         3.849688         0.849611         1.757065
 H         3.145697         2.339788         1.129067
