19
Iteration:  3042charge 0 multiplicity 1
 C         0.143001        -0.759449         0.441717
 C         1.510135        -0.115816         0.347560
 C         1.942430         0.855055        -0.802483
 C         3.434471         0.465083        -0.228108
 C         4.255483        -0.158471        -1.399334
 O         3.420658        -1.287665        -1.367064
 C         2.873554        -0.954982         0.086333
 C         3.285222         1.199281         1.093182
 O         1.888783         0.648028         1.504193
 H        -0.493178        -0.484257        -0.518710
 H         0.314886        -1.823245         0.288867
 H        -0.516164        -0.501640         1.395420
 H         1.783889         0.579450        -1.809304
 H         1.690350         1.990044        -0.536070
 H         4.277714         0.377124        -2.367807
 H         5.341854        -0.381895        -1.045625
 H         3.238303        -1.833016         0.675147
 H         3.991295         0.868748         1.866293
 H         3.242086         2.251962         0.953151
