19
Iteration:  2566charge 0 multiplicity 1
 C         0.219142        -0.791113         0.491566
 C         1.494629        -0.142710         0.211478
 C         1.895583         0.771277        -0.960430
 C         3.296680         0.448745        -0.306765
 C         4.391038        -0.251791        -1.113267
 O         3.489169        -1.419589        -1.081504
 C         2.787214        -0.915349         0.084557
 C         3.210902         1.369395         0.903622
 O         1.946154         0.791112         1.362053
 H         0.453590        -1.658539         1.063739
 H        -0.454876        -0.184267         1.012974
 H        -0.215890        -1.081719        -0.426591
 H         1.719995         0.364154        -2.023554
 H         1.368013         1.796794        -0.791967
 H         4.359094         0.316760        -2.029706
 H         5.413180        -0.468928        -0.740450
 H         3.073522        -1.462805         1.029976
 H         3.960050         1.315695         1.676338
 H         2.972976         2.432399         0.572198
