19
Iteration:  1074
 C         0.170450        -0.812167         0.564651
 C         1.483770        -0.157920         0.143131
 C         1.981274         0.082335        -1.264805
 C         3.301585         0.412914        -0.502878
 C         4.567766        -0.454555        -0.785816
 O         3.889250        -1.590616        -0.002221
 C         2.995577        -0.627089         0.580235
 C         2.820055         1.771064         0.070483
 O         1.548326         1.215922         0.740595
 H         0.223038        -1.271767         1.579654
 H        -0.684386        -0.085477         0.627072
 H        -0.120041        -1.646575        -0.144893
 H         2.112485        -0.898110        -1.817402
 H         1.338404         0.740422        -1.825833
 H         4.631334        -0.537657        -1.835422
 H         5.439915        -0.134202        -0.219231
 H         3.203374        -0.392633         1.642290
 H         3.482370         2.216438         0.749433
 H         2.686028         2.614209        -0.653238
