19
Iteration:  4825charge 0 multiplicity 1
 C         0.180442        -0.760178         0.436561
 C         1.499026        -0.136595         0.238344
 C         2.009229         1.087916        -0.622688
 C         3.364237         0.542531        -0.219641
 C         4.275227        -0.034764        -1.406853
 O         3.198952        -1.033477        -1.539190
 C         2.740062        -0.845113        -0.151764
 C         3.420206         0.826037         1.256195
 O         2.040458         0.273564         1.590463
 H        -0.255129        -1.341390        -0.384973
 H         0.243998        -1.388581         1.333447
 H        -0.613131         0.024080         0.627334
 H         1.919744         1.002813        -1.611442
 H         1.801636         2.094784        -0.285964
 H         4.357359         0.637254        -2.220884
 H         5.216282        -0.318112        -1.123921
 H         3.127658        -1.652918         0.633964
 H         4.164792         0.217693         1.859556
 H         3.493561         1.899765         1.540884
