19
Iteration:   508
 C         0.220003        -0.734592         0.660417
 C         1.525793        -0.262165         0.129925
 C         2.121200        -0.470743        -1.226821
 C         3.356585         0.418760        -0.567323
 C         4.637400        -0.366928        -0.536416
 O         3.968092        -1.443276         0.459758
 C         2.981780        -0.310997         0.751618
 C         2.611717         1.709721        -0.340512
 O         1.360228         1.247439         0.230846
 H         0.045707        -1.746705         1.102512
 H        -0.072964        -0.007413         1.503193
 H        -0.548162        -0.476666        -0.132215
 H         2.336429        -1.497133        -1.638625
 H         1.554487         0.065713        -2.053409
 H         4.905383        -1.009770        -1.385639
 H         5.497904         0.165916        -0.067894
 H         3.198899         0.188230         1.746889
 H         3.144258         2.463884         0.222280
 H         2.388095         2.378439        -1.221550
