19
Iteration:   656charge 0 multiplicity 1
 C         0.146361        -0.789709         0.611410
 C         1.474109        -0.264391         0.162877
 C         2.012806        -0.411742        -1.235324
 C         3.269048         0.368527        -0.656667
 C         4.610286        -0.311705        -0.589420
 O         3.949727        -1.442120         0.353950
 C         2.959563        -0.404504         0.741480
 C         2.772219         1.762813        -0.231954
 O         1.525820         1.295232         0.346659
 H        -0.286018        -1.399096        -0.216527
 H         0.203466        -1.466402         1.397171
 H        -0.595754         0.047965         0.775875
 H         2.125318        -1.509259        -1.433987
 H         1.291935         0.114272        -1.805080
 H         5.142933        -0.647452        -1.508458
 H         5.329751         0.309479         0.017451
 H         3.233815         0.053103         1.694741
 H         3.408628         2.046745         0.681379
 H         2.762356         2.600507        -0.869735
