19
Iteration:  3944charge 0 multiplicity 1
 C         0.139262        -0.708716         0.352596
 C         1.518331        -0.124063         0.237172
 C         1.902853         1.061925        -0.542380
 C         3.379023         0.498197        -0.200475
 C         4.183090         0.025184        -1.374874
 O         3.284623        -1.129907        -1.542839
 C         2.762036        -0.915026        -0.139919
 C         3.472955         0.868773         1.230979
 O         2.089716         0.364071         1.630095
 H        -0.294887        -0.683725        -0.745330
 H         0.301270        -1.779396         0.578837
 H        -0.577921        -0.296127         1.086572
 H         1.747922         1.054978        -1.625377
 H         1.611980         1.962043        -0.136542
 H         4.207979         0.575081        -2.360779
 H         5.166333        -0.393370        -1.175354
 H         3.084792        -1.796357         0.476907
 H         4.182855         0.369342         1.823012
 H         3.444247         1.941877         1.482332
