19
Iteration:  4214charge 0 multiplicity 1
 C         0.172648        -0.642253         0.396983
 C         1.528740        -0.161724         0.283592
 C         1.934559         1.078885        -0.643396
 C         3.407176         0.558813        -0.221360
 C         4.191921        -0.001064        -1.385545
 O         3.262091        -1.086916        -1.546518
 C         2.818691        -0.894954        -0.134561
 C         3.410208         0.812442         1.256834
 O         2.029835         0.264016         1.590836
 H        -0.120906        -1.044237        -0.515651
 H         0.213433        -1.385731         1.140910
 H        -0.421194         0.169311         0.745198
 H         1.625748         0.877118        -1.620916
 H         1.688986         2.142201        -0.189991
 H         4.127428         0.680445        -2.190242
 H         5.214497        -0.358578        -1.212433
 H         3.199034        -1.832021         0.587566
 H         4.093377         0.265868         1.905758
 H         3.294518         1.822996         1.561379
