19
Iteration:  4840charge 0 multiplicity 1
 C         0.123998        -0.789515         0.440757
 C         1.525969        -0.047423         0.240705
 C         1.966199         1.141652        -0.577912
 C         3.469166         0.580183        -0.182900
 C         4.160743        -0.000116        -1.352577
 O         3.218757        -1.154319        -1.574211
 C         2.820686        -0.852984        -0.217437
 C         3.406436         0.804382         1.338140
 O         2.083254         0.334541         1.527093
 H         0.118762        -1.491823        -0.379713
 H         0.044294        -1.413564         1.304961
 H        -0.759290        -0.263565         0.487415
 H         1.555354         1.192691        -1.731906
 H         1.575161         2.146294        -0.190000
 H         4.312987         0.429667        -2.369613
 H         5.047660        -0.641229        -1.081188
 H         3.195490        -1.682139         0.401149
 H         4.147591         0.160178         1.859048
 H         3.406587         1.826123         1.739517
