19
Iteration:  3348charge 0 multiplicity 1
 C         0.114024        -0.784898         0.485725
 C         1.502398        -0.120483         0.267619
 C         2.009213         0.905800        -0.696166
 C         3.446289         0.449122        -0.169988
 C         4.238028        -0.071576        -1.345001
 O         3.305909        -1.161982        -1.484801
 C         2.843949        -0.981475        -0.081617
 C         3.363569         1.123570         1.135301
 O         1.949110         0.551644         1.536993
 H        -0.752282        -0.089477         0.414269
 H        -0.016395        -1.517382        -0.348196
 H         0.017842        -1.507214         1.393070
 H         1.847199         0.734434        -1.801419
 H         1.717128         1.980673        -0.472119
 H         4.285878         0.545220        -2.245680
 H         5.181154        -0.560492        -0.998600
 H         3.216715        -1.803674         0.567151
 H         4.026677         0.808345         2.012493
 H         3.339034         2.114604         1.049357
