19
Iteration:  2090charge 0 multiplicity 1
 C        -0.011536        -0.870379         0.499766
 C         1.413429        -0.109550         0.346747
 C         1.857140         0.533493        -1.063976
 C         3.366450         0.471628        -0.384599
 C         4.489361        -0.277209        -1.094588
 O         3.696169        -1.477695        -0.890909
 C         2.815570        -0.862709         0.250258
 C         3.240546         1.504672         0.778527
 O         1.842579         0.978274         1.171225
 H        -0.662442        -0.502445        -0.238982
 H         0.300404        -1.897349         0.387471
 H        -0.522101        -0.818278         1.452780
 H         1.677858        -0.059111        -1.929970
 H         1.283144         1.593724        -1.069226
 H         4.675961        -0.020953        -2.198737
 H         5.405579        -0.365728        -0.472646
 H         3.395460        -1.379937         1.115605
 H         3.806672         1.354256         1.636948
 H         3.127726         2.590646         0.408698
