19
Iteration:    38charge 0 multiplicity 1
 C         0.195928        -0.853696         0.720719
 C         1.462983        -0.202490         0.109091
 C         2.080041        -0.742973        -1.142918
 C         3.281970         0.291710        -0.598167
 C         4.584849        -0.326747        -0.222538
 O         4.072766        -1.086360         0.782086
 C         2.934276        -0.208141         0.818266
 C         2.664508         1.634418        -0.779948
 O         1.413266         1.277382        -0.132281
 H        -0.706635        -0.239501         0.687965
 H         0.200754        -1.794695         0.157957
 H         0.331395        -1.171429         1.756726
 H         2.364388        -1.810170        -0.933003
 H         1.516567        -0.632701        -2.077251
 H         5.152396        -0.937577        -0.926280
 H         5.336171         0.424036         0.135084
 H         2.972320         0.539246         1.675931
 H         3.163446         2.581384        -0.237891
 H         2.593902         2.084026        -1.916638
