19
Iteration:  3913
 C         0.151659        -0.642647         0.438075
 C         1.525426        -0.170299         0.249136
 C         1.970345         0.943397        -0.636264
 C         3.403350         0.554113        -0.206039
 C         4.226790        -0.045595        -1.353228
 O         3.157351        -1.003409        -1.606976
 C         2.871314        -0.833968        -0.158120
 C         3.343006         0.865729         1.285818
 O         2.097042         0.259913         1.651148
 H        -0.288061        -1.004130        -0.455004
 H         0.141387        -1.480268         1.100013
 H        -0.545160         0.097901         0.674385
 H         1.882010         0.733977        -1.857782
 H         1.506952         2.004963        -0.513374
 H         4.572823         0.538984        -2.252452
 H         5.048391        -0.552585        -0.928510
 H         3.434053        -1.656176         0.424262
 H         4.209633         0.408617         1.790877
 H         3.215679         1.932010         1.435133
