19
Iteration:  1763
 C         0.188761        -0.734547         0.549778
 C         1.446741        -0.159739         0.150485
 C         1.954298         0.448032        -1.158368
 C         3.365532         0.515704        -0.372166
 C         4.380819        -0.361316        -1.023142
 O         3.741087        -1.550913        -0.615776
 C         2.948490        -0.801709         0.421105
 C         2.964947         1.582593         0.526847
 O         1.759750         0.932452         1.093853
 H        -0.226584        -0.152512         1.457452
 H        -0.600817        -0.689107        -0.233874
 H         0.446318        -1.783572         0.697163
 H         1.715551        -0.296014        -1.962977
 H         1.510430         1.368989        -1.429559
 H         4.452666        -0.441308        -2.108742
 H         5.383154        -0.253208        -0.646252
 H         3.164811        -0.978716         1.449856
 H         3.576931         1.904867         1.423880
 H         2.730625         2.524433         0.137083
