19
Iteration:  3497charge 0 multiplicity 1
 C         0.130150        -0.819055         0.389133
 C         1.444937        -0.182492         0.288913
 C         1.969455         1.063909        -0.615488
 C         3.349301         0.496999        -0.243721
 C         4.317864        -0.061716        -1.301532
 O         3.277327        -1.152894        -1.556049
 C         2.762532        -0.934231        -0.158229
 C         3.405507         1.011983         1.155719
 O         2.058949         0.489262         1.656486
 H         0.184883        -1.899520         0.185137
 H        -0.462797        -0.518545         1.488913
 H        -0.597794        -0.489984        -0.391817
 H         1.621127         0.742642        -1.635515
 H         1.729847         2.000712        -0.291439
 H         4.677289         0.360962        -2.237620
 H         5.208801        -0.435170        -0.865411
 H         3.267376        -1.629420         0.515734
 H         4.133792         0.654760         1.773409
 H         3.451700         2.105113         1.229241
