19
Iteration:   978
 C         0.233801        -0.741215         0.630681
 C         1.525831        -0.221023         0.176301
 C         2.049766        -0.037690        -1.331374
 C         3.267084         0.450617        -0.531050
 C         4.513709        -0.456252        -0.719946
 O         3.872743        -1.533628        -0.012562
 C         2.905982        -0.476003         0.648495
 C         2.731867         1.704973         0.059252
 O         1.593966         1.164706         0.631428
 H        -0.429678        -0.895899        -0.223605
 H         0.343338        -1.728733         1.073449
 H        -0.211741         0.043937         1.270395
 H         2.310154        -1.069453        -1.799585
 H         1.524591         0.633242        -2.000772
 H         4.879057        -0.716173        -1.729143
 H         5.325005        -0.170877        -0.018400
 H         3.208990        -0.341500         1.659816
 H         3.536109         2.123076         0.890080
 H         2.465768         2.530242        -0.640437
