19
Iteration:  3534
 C         0.193052        -0.649969         0.509084
 C         1.568006        -0.115957         0.214934
 C         1.982120         0.990646        -0.733763
 C         3.336831         0.554045        -0.234094
 C         4.211602         0.063170        -1.390654
 O         3.330911        -1.185340        -1.430942
 C         2.826124        -0.849943        -0.150125
 C         3.307780         0.829801         1.241632
 O         1.979517         0.314651         1.569381
 H         0.326721        -1.497118         1.185645
 H        -0.312470         0.073951         1.106078
 H        -0.353828        -0.873796        -0.450436
 H         1.831539         0.662146        -1.735579
 H         1.492072         2.094828        -0.675859
 H         4.146546         0.519348        -2.369427
 H         5.197267        -0.338860        -1.051672
 H         3.200021        -1.559298         0.609890
 H         4.120153         0.147726         1.697243
 H         3.431124         2.013262         1.540042
