19
Iteration:  2022charge 0 multiplicity 1
 C         0.089194        -0.816826         0.551619
 C         1.453470        -0.120906         0.254380
 C         1.972975         0.522353        -1.096007
 C         3.347075         0.445262        -0.337457
 C         4.427973        -0.246869        -1.163288
 O         3.705245        -1.567365        -0.809202
 C         2.911678        -0.911072         0.257939
 C         3.098577         1.493637         0.720258
 O         1.724650         1.033141         1.209983
 H        -0.390040        -0.246526         1.367159
 H        -0.547420        -0.868507        -0.277734
 H         0.168935        -1.815209         0.899171
 H         2.064484         0.012761        -2.090771
 H         1.698277         1.617705        -1.132071
 H         4.324346        -0.096662        -2.276347
 H         5.449605        -0.196932        -0.804809
 H         3.223088        -1.108628         1.356523
 H         3.834288         1.582266         1.565783
 H         2.841681         2.457377         0.297013
