19
Iteration:  4277charge 0 multiplicity 1
 C         0.106085        -0.737467         0.433740
 C         1.550332        -0.166002         0.275007
 C         1.941309         1.033096        -0.596709
 C         3.356646         0.530892        -0.220596
 C         4.241638         0.067127        -1.333386
 O         3.244493        -1.072954        -1.610377
 C         2.752286        -0.942916        -0.211750
 C         3.469574         0.804856         1.323137
 O         2.057261         0.383356         1.564490
 H        -0.092612        -1.532487        -0.299887
 H        -0.084731        -1.206458         1.474306
 H        -0.704920         0.106486         0.294924
 H         1.786527         1.013896        -1.598970
 H         1.787685         2.049100        -0.266569
 H         4.450546         0.760674        -2.197691
 H         5.221768        -0.338347        -0.949499
 H         3.089808        -1.685290         0.353350
 H         4.200115         0.113260         1.878481
 H         3.653773         1.853831         1.562047
