19
Iteration:   770
 C         0.168015        -0.799820         0.636055
 C         1.497115        -0.210324         0.166474
 C         2.004336        -0.211033        -1.269249
 C         3.317810         0.383905        -0.621969
 C         4.589182        -0.414228        -0.635110
 O         3.930168        -1.460590         0.227581
 C         2.920562        -0.501461         0.727058
 C         2.822217         1.789705        -0.144812
 O         1.512340         1.242272         0.438805
 H        -0.513087         0.042033         0.787955
 H        -0.177532        -1.553245        -0.144389
 H         0.227655        -1.332798         1.561533
 H         2.008480        -1.257212        -1.526495
 H         1.414353         0.513354        -2.002498
 H         5.079223        -0.817532        -1.547341
 H         5.420791         0.027825         0.000823
 H         3.061021        -0.130655         1.761413
 H         3.350575         2.312040         0.694407
 H         2.377545         2.437756        -0.977192
