19
Iteration:   458charge 0 multiplicity 1
 C         0.181687        -0.844384         0.675994
 C         1.492305        -0.266782         0.156485
 C         2.101336        -0.500503        -1.245443
 C         3.272215         0.360432        -0.555521
 C         4.641633        -0.423715        -0.487181
 O         3.948198        -1.336659         0.475824
 C         2.901327        -0.222298         0.755137
 C         2.672056         1.764987        -0.446426
 O         1.482962         1.294984         0.242943
 H        -0.355425        -1.284655        -0.122202
 H         0.314863        -1.714923         1.320243
 H        -0.453855        -0.117912         1.105365
 H         2.416324        -1.480336        -1.473937
 H         1.651660        -0.126960        -2.135991
 H         5.045160        -0.950609        -1.393324
 H         5.428071         0.075206         0.068168
 H         3.227445         0.340787         1.621348
 H         3.383674         2.384719         0.188086
 H         2.446611         2.326250        -1.336615
