19
Iteration:  3351charge 0 multiplicity 1
 C         0.129260        -0.775914         0.500600
 C         1.522335        -0.127436         0.276634
 C         1.995772         0.934871        -0.723912
 C         3.447322         0.425915        -0.171230
 C         4.224610        -0.093574        -1.353964
 O         3.307105        -1.163481        -1.490099
 C         2.853310        -0.973481        -0.105612
 C         3.341443         1.120087         1.159655
 O         1.943236         0.542396         1.546955
 H        -0.727389        -0.013153         0.382136
 H         0.034493        -1.642389        -0.359569
 H        -0.063800        -1.429695         1.419850
 H         1.931263         0.685188        -1.698118
 H         1.733466         1.950923        -0.507049
 H         4.357203         0.593045        -2.187496
 H         5.144275        -0.492950        -0.982376
 H         3.217537        -1.783517         0.559204
 H         4.026109         0.829080         2.018731
 H         3.324754         2.293351         1.014240
