19
Iteration:  4417charge 0 multiplicity 1
 C         0.124007        -0.737319         0.470384
 C         1.484892        -0.090275         0.263978
 C         1.967204         1.139654        -0.534157
 C         3.368175         0.475182        -0.228193
 C         4.210773         0.029710        -1.373591
 O         3.323419        -1.164422        -1.636067
 C         2.801119        -0.899096        -0.205883
 C         3.445872         0.796629         1.252701
 O         2.016742         0.364414         1.585731
 H        -0.329743        -1.153236        -0.370574
 H         0.485684        -1.528331         1.162447
 H        -0.502238        -0.080763         1.030552
 H         1.639508         1.177972        -1.801009
 H         1.823226         2.179764        -0.174913
 H         4.374674         0.705122        -2.246214
 H         5.157685        -0.366474        -0.999790
 H         2.918641        -1.604100         0.542728
 H         3.880613         0.187471         2.029171
 H         3.438849         1.881503         1.437143
