19
Iteration:   356charge 0 multiplicity 1
 C         0.174868        -0.756862         0.707399
 C         1.499190        -0.251296         0.156574
 C         2.178811        -0.462152        -1.235042
 C         3.338491         0.320355        -0.631975
 C         4.717592        -0.427779        -0.403127
 O         3.986784        -1.307996         0.572490
 C         2.923664        -0.253395         0.749594
 C         2.555064         1.754256        -0.576124
 O         1.364712         1.201004         0.183712
 H         0.295848        -0.633330         1.831842
 H        -0.630091        -0.048223         0.363041
 H        -0.138585        -1.800466         0.405491
 H         2.431493        -1.555769        -1.341308
 H         1.637801        -0.006087        -2.102084
 H         5.159633        -1.076498        -1.243220
 H         5.585121         0.180812        -0.010549
 H         3.074198         0.183367         1.813593
 H         3.113156         2.483045         0.186711
 H         2.349555         2.101478        -1.634843
