19
Iteration:    92
 C         0.245824        -0.774696         0.725827
 C         1.540206        -0.277685         0.180752
 C         2.203619        -0.583588        -1.098041
 C         3.332759         0.332242        -0.562263
 C         4.703981        -0.362817        -0.390087
 O         3.983950        -1.232224         0.779336
 C         2.877810        -0.190583         0.883278
 C         2.571275         1.697022        -0.747441
 O         1.298905         1.215755        -0.197144
 H        -0.224161        -1.557207         0.115370
 H         0.478538        -1.174313         1.713540
 H        -0.421031         0.064034         0.848161
 H         2.630457        -1.607139        -1.111301
 H         1.581079        -0.343523        -1.954577
 H         4.974985        -1.005871        -1.180237
 H         5.563078         0.192249         0.036488
 H         2.794948         0.345927         1.897027
 H         3.116207         2.537053        -0.126854
 H         2.427410         1.932025        -1.884664
