19
Iteration:   707
 C         0.274186        -0.851360         0.699494
 C         1.534465        -0.283402         0.147549
 C         2.064936        -0.147423        -1.317683
 C         3.376264         0.444478        -0.434533
 C         4.615863        -0.522411        -0.597492
 O         3.861345        -1.470273         0.282663
 C         2.922611        -0.475148         0.706025
 C         2.667848         1.793566        -0.198812
 O         1.439137         1.307813         0.328554
 H         0.370144        -1.551176         1.525143
 H        -0.232783         0.029583         1.181409
 H        -0.338967        -1.285365        -0.094432
 H         2.300524        -1.076944        -1.753770
 H         1.609633         0.545477        -2.016916
 H         4.771874        -0.856238        -1.631028
 H         5.532775        -0.261953        -0.142174
 H         3.236442        -0.068903         1.692076
 H         3.092166         2.637436         0.259677
 H         2.529913         2.177756        -1.276998
