19
Iteration:  4256charge 0 multiplicity 1
 C         0.154172        -0.732837         0.310266
 C         1.560968        -0.092458         0.298887
 C         1.981797         1.002534        -0.569369
 C         3.439603         0.450792        -0.155725
 C         4.206286        -0.008504        -1.353130
 O         3.178687        -0.993734        -1.610026
 C         2.750201        -0.960736        -0.171418
 C         3.397267         0.927329         1.251540
 O         2.103329         0.302457         1.663918
 H         0.092053        -1.552764        -0.377359
 H        -0.203101        -1.183103         1.275245
 H        -0.727364        -0.017971         0.102063
 H         1.773184         0.930797        -1.559870
 H         1.690321         2.048369        -0.166941
 H         4.259699         0.751782        -2.172546
 H         5.219472        -0.512870        -1.205719
 H         3.024633        -1.771475         0.395380
 H         4.265454         0.523506         1.862151
 H         3.363869         1.986327         1.210074
