19
Iteration:  3053charge 0 multiplicity 1
 C         0.093108        -0.773924         0.415463
 C         1.531142        -0.168558         0.322657
 C         1.963599         0.814786        -0.832841
 C         3.367389         0.538742        -0.251108
 C         4.267929        -0.144785        -1.316774
 O         3.387521        -1.280372        -1.319405
 C         2.852455        -0.914626        -0.022880
 C         3.343764         1.194992         1.142354
 O         1.964034         0.630647         1.491411
 H        -0.477073        -0.537751        -0.597961
 H         0.125625        -1.847585         0.637499
 H        -0.500252        -0.407627         1.400069
 H         1.825822         0.383700        -1.782199
 H         1.497511         1.900657        -0.873588
 H         4.126105         0.458945        -2.227582
 H         5.336058        -0.570750        -1.298995
 H         3.265598        -1.466201         0.870868
 H         3.970619         0.832206         1.972933
 H         3.329366         2.268050         1.223793
