19
Iteration:  3061
 C         0.117130        -0.776007         0.436881
 C         1.511267        -0.165807         0.230208
 C         1.940273         0.794490        -0.845039
 C         3.376913         0.561439        -0.231476
 C         4.282500        -0.074690        -1.309250
 O         3.327886        -1.322342        -1.281742
 C         2.849261        -0.860165        -0.024249
 C         3.327495         1.146242         1.163663
 O         2.015329         0.610002         1.491561
 H        -0.530545        -0.611282        -0.490856
 H         0.085790        -1.877284         0.666132
 H        -0.437866        -0.078306         1.144411
 H         1.895435         0.269925        -1.744711
 H         1.523515         1.693784        -0.904159
 H         4.247330         0.357621        -2.315580
 H         5.310052        -0.306010        -1.048232
 H         3.298507        -1.398111         0.815429
 H         4.174889         0.710210         1.764356
 H         3.237981         2.307139         1.268391
