19
Iteration:   804
 C         0.146103        -0.721739         0.587274
 C         1.552407        -0.217003         0.152859
 C         2.105425        -0.226837        -1.257444
 C         3.329197         0.402020        -0.503581
 C         4.615642        -0.473000        -0.713055
 O         3.950520        -1.482347         0.142540
 C         2.912402        -0.497641         0.742686
 C         2.703359         1.828965        -0.097209
 O         1.468787         1.230903         0.521002
 H        -0.590972        -0.771242        -0.200724
 H         0.102191        -1.753447         1.006727
 H        -0.169048        -0.062745         1.371412
 H         2.164480        -1.297117        -1.475721
 H         1.543077         0.299955        -2.072447
 H         4.767933        -0.869734        -1.744967
 H         5.550410        -0.093117        -0.242094
 H         2.988895        -0.312737         1.833143
 H         3.245982         2.500012         0.553882
 H         2.474580         2.436180        -1.008388
