19
Iteration:   504charge 0 multiplicity 1
 C         0.217308        -0.728606         0.650057
 C         1.528618        -0.244480         0.143576
 C         2.103391        -0.489636        -1.213288
 C         3.362766         0.388279        -0.544706
 C         4.625586        -0.369293        -0.538984
 O         4.008624        -1.455809         0.450201
 C         2.974490        -0.317488         0.765616
 C         2.598759         1.730235        -0.354466
 O         1.360453         1.280699         0.207609
 H         0.068444        -1.774288         0.943867
 H         0.040746        -0.175760         1.511969
 H        -0.507409        -0.395228        -0.077114
 H         2.234026        -1.504680        -1.605454
 H         1.548047         0.012138        -1.995785
 H         4.922623        -0.872584        -1.439751
 H         5.426150         0.133231        -0.022351
 H         3.112683         0.168019         1.706863
 H         3.050191         2.429161         0.369225
 H         2.426643         2.342817        -1.235270
