19
Iteration:  2216charge 0 multiplicity 1
 C         0.088766        -0.726075         0.562278
 C         1.558961        -0.149540         0.195161
 C         2.016841         0.625025        -1.144548
 C         3.361638         0.627873        -0.392608
 C         4.338224        -0.269075        -1.183005
 O         3.537369        -1.522981        -0.946963
 C         2.990591        -0.810892         0.198127
 C         3.032346         1.422165         0.980626
 O         1.824997         0.751274         1.267194
 H         0.193889        -1.218949         1.653051
 H        -0.574740         0.124616         0.782120
 H        -0.340411        -1.375874        -0.265965
 H         2.026242        -0.151914        -1.850903
 H         1.479077         1.479687        -1.493657
 H         4.436128        -0.188012        -2.267178
 H         5.410327        -0.497116        -0.796165
 H         3.215244        -0.998731         1.208248
 H         3.850380         1.195213         1.798781
 H         3.013177         2.521258         1.073533
