19
Iteration:  2021
 C         0.099635        -0.815904         0.551230
 C         1.455637        -0.117086         0.258665
 C         1.962185         0.522111        -1.095768
 C         3.333487         0.447410        -0.337649
 C         4.427838        -0.244660        -1.157991
 O         3.708770        -1.573431        -0.813505
 C         2.909985        -0.912852         0.268565
 C         3.100008         1.492267         0.719863
 O         1.721976         1.038796         1.205818
 H        -0.385385        -0.253093         1.370183
 H        -0.529296        -0.855462        -0.314129
 H         0.154127        -1.846929         0.851152
 H         2.039100         0.008948        -2.125157
 H         1.699807         1.590659        -1.134183
 H         4.339845        -0.087010        -2.253571
 H         5.449708        -0.179382        -0.822546
 H         3.231331        -1.135174         1.351487
 H         3.909845         1.569410         1.579095
 H         2.889630         2.464203         0.303987
