19
Iteration:  3230
 C         0.077680        -0.672869         0.522581
 C         1.467182        -0.121742         0.254818
 C         1.919511         0.804824        -0.856146
 C         3.423607         0.551632        -0.221099
 C         4.302104        -0.100212        -1.348239
 O         3.343332        -1.183098        -1.424560
 C         2.943260        -0.879808         0.004097
 C         3.319616         1.064440         1.168153
 O         1.946464         0.467191         1.502128
 H        -0.094274        -0.654276         1.631605
 H        -0.818212        -0.083671         0.019589
 H         0.053467        -1.728727         0.093316
 H         1.792283         0.443268        -1.783470
 H         1.465960         1.809869        -0.732989
 H         4.432642         0.508915        -2.235732
 H         5.167950        -0.622520        -0.939091
 H         3.456703        -1.523392         0.758509
 H         4.125250         0.495517         1.739982
 H         3.497849         2.231907         1.470267
