19
Iteration:  4593charge 0 multiplicity 1
 C         0.112058        -0.625765         0.505593
 C         1.516259        -0.164868         0.262809
 C         1.942990         1.045433        -0.674711
 C         3.387051         0.517055        -0.134971
 C         4.231474         0.034623        -1.377637
 O         3.291398        -1.096641        -1.608965
 C         2.766236        -0.928740        -0.200172
 C         3.344592         0.854792         1.295689
 O         2.101106         0.264707         1.588127
 H        -0.376543        -0.461767        -0.406115
 H         0.090321        -1.654854         0.826216
 H        -0.274862         0.082875         1.272647
 H         1.907236         0.550863        -1.742062
 H         1.676376         2.082832        -0.480319
 H         4.284344         0.809162        -2.228996
 H         5.321757        -0.364190        -1.246569
 H         3.110358        -1.748972         0.522180
 H         4.165615         0.377106         1.905408
 H         3.359492         2.017624         1.345218
