19
Iteration:  1787
 C         0.199037        -0.877582         0.599289
 C         1.440077        -0.189296         0.243990
 C         1.951369         0.505307        -1.161133
 C         3.319382         0.496547        -0.419413
 C         4.453348        -0.325910        -1.038884
 O         3.741702        -1.664408        -0.609176
 C         2.873178        -0.814692         0.279186
 C         2.985719         1.648225         0.557856
 O         1.755348         1.086778         1.100004
 H        -0.454742        -0.031721         0.866035
 H        -0.250937        -1.280884        -0.317253
 H         0.329262        -1.669024         1.350506
 H         1.848031        -0.094638        -2.028054
 H         1.501683         1.532454        -1.392930
 H         4.667410        -0.252335        -2.108023
 H         5.405708        -0.352481        -0.458320
 H         3.007192        -1.111164         1.336277
 H         3.611062         1.757612         1.483072
 H         2.875954         2.611034         0.251267
