19
Iteration:  2502charge 0 multiplicity 1
 C         0.089761        -0.699787         0.561515
 C         1.508626        -0.179666         0.167065
 C         2.024420         0.709729        -0.985047
 C         3.365844         0.517103        -0.254608
 C         4.303618        -0.186655        -1.207356
 O         3.576209        -1.462344        -1.058299
 C         2.810478        -0.992393         0.117958
 C         3.150811         1.434046         0.916145
 O         1.919309         0.719830         1.353435
 H         0.120982        -1.809198         0.537921
 H        -0.357623        -0.412854         1.572016
 H        -0.683704        -0.356743        -0.166385
 H         2.015812         0.357639        -2.049881
 H         1.586690         1.715102        -0.867658
 H         4.119162         0.110136        -2.250764
 H         5.358242        -0.112928        -0.982830
 H         3.237843        -1.525379         1.047903
 H         4.012673         1.375491         1.608914
 H         2.780121         2.480924         0.603663
