19
Iteration:  3546
 C         0.147369        -0.596264         0.514684
 C         1.494066        -0.139579         0.267270
 C         1.948872         0.945235        -0.778252
 C         3.385213         0.588522        -0.235902
 C         4.187518        -0.007510        -1.411426
 O         3.387718        -1.146374        -1.518189
 C         2.859446        -0.915061        -0.136828
 C         3.323666         0.850844         1.269586
 O         1.980971         0.315851         1.611556
 H         0.119902        -1.279301         1.405363
 H        -0.425687         0.190548         0.721627
 H        -0.308425        -1.146116        -0.316734
 H         1.867702         0.626353        -1.809590
 H         1.676233         2.113723        -0.528659
 H         4.155600         0.713375        -2.240596
 H         5.299110        -0.163649        -1.264491
 H         3.250226        -1.648249         0.608949
 H         4.150494         0.312440         1.944180
 H         3.314927         2.024734         1.668616
