19
Iteration:  4437
 C         0.114331        -0.632259         0.521840
 C         1.533461        -0.153078         0.289462
 C         1.914939         1.017983        -0.611518
 C         3.370671         0.535781        -0.214548
 C         4.286479        -0.032039        -1.369894
 O         3.281482        -1.026592        -1.577746
 C         2.742495        -0.923734        -0.255038
 C         3.399174         0.836363         1.276626
 O         2.078358         0.282956         1.585562
 H        -0.126972        -1.180582        -0.401961
 H         0.049047        -1.276451         1.415335
 H        -0.533040         0.165839         0.487403
 H         1.660864         0.854806        -1.915709
 H         1.530438         1.982289        -0.249792
 H         4.430308         0.641224        -2.271702
 H         5.327069        -0.378378        -1.003939
 H         3.196489        -1.644692         0.330653
 H         4.169542         0.217981         1.724940
 H         3.353310         1.902179         1.670256
