19
Iteration:  1961
 C         0.211144        -0.792699         0.565107
 C         1.472881        -0.081492         0.193452
 C         2.025523         0.520680        -1.146309
 C         3.358640         0.545225        -0.377219
 C         4.389333        -0.390638        -1.075808
 O         3.602072        -1.541537        -0.767352
 C         2.879854        -0.809742         0.294623
 C         2.984844         1.576484         0.691687
 O         1.790603         0.879236         1.205623
 H         0.483614        -1.472696         1.408136
 H        -0.534242        -0.076851         1.015454
 H        -0.177223        -1.448888        -0.264696
 H         2.054818        -0.072534        -1.993858
 H         1.608675         1.512085        -1.463810
 H         4.512121        -0.299798        -2.165370
 H         5.362249        -0.403431        -0.538961
 H         3.246565        -1.075799         1.264221
 H         3.792180         1.823752         1.462829
 H         2.655756         2.474889         0.084279
