19
Iteration:    56
 C         0.267441        -0.745582         0.698660
 C         1.503957        -0.233898         0.144083
 C         2.296576        -0.707970        -1.152766
 C         3.289094         0.262539        -0.678520
 C         4.716640        -0.377497        -0.354702
 O         3.950169        -1.145253         0.829365
 C         2.875032        -0.084057         0.784848
 C         2.576722         1.605297        -0.716312
 O         1.291918         1.227835        -0.039829
 H        -0.558496        -0.340271         0.141518
 H         0.111619        -1.841124         0.667925
 H         0.196360        -0.376441         1.744692
 H         2.648226        -1.721370        -1.037627
 H         1.861624        -0.554666        -2.125155
 H         5.089244        -1.036001        -1.110237
 H         5.495085         0.289090         0.078722
 H         2.862566         0.546724         1.675455
 H         3.053655         2.355896        -0.174573
 H         2.213098         1.931710        -1.620583
