19
Iteration:  1007charge 0 multiplicity 1
 C         0.141315        -0.891247         0.655641
 C         1.460130        -0.214827         0.245308
 C         2.007001        -0.037330        -1.179545
 C         3.327172         0.449378        -0.439054
 C         4.611195        -0.419870        -0.741689
 O         3.896444        -1.563495        -0.108679
 C         2.891232        -0.578172         0.589102
 C         2.870221         1.737681         0.054670
 O         1.510737         1.375643         0.527649
 H         0.078577        -1.730786        -0.099784
 H         0.191525        -1.208186         1.765665
 H        -0.644039        -0.154891         0.451304
 H         2.176940        -1.003830        -1.584819
 H         1.457709         0.616009        -1.968609
 H         4.828644        -0.613627        -1.780292
 H         5.451063        -0.288586        -0.058949
 H         3.190643        -0.778410         1.654627
 H         3.449405         2.135227         0.872645
 H         2.760036         2.679370        -0.600725
