19
Iteration:    39
 C         0.204895        -0.847895         0.716514
 C         1.464981        -0.198429         0.099142
 C         2.086459        -0.742333        -1.133075
 C         3.292475         0.290947        -0.603376
 C         4.585181        -0.327780        -0.233685
 O         4.068173        -1.092003         0.790326
 C         2.924967        -0.206169         0.815431
 C         2.651528         1.638386        -0.778752
 O         1.410379         1.269722        -0.123994
 H        -0.715475        -0.206993         0.661134
 H         0.231639        -1.810607         0.185781
 H         0.328180        -1.132607         1.776149
 H         2.364862        -1.809199        -0.912625
 H         1.535957        -0.631921        -2.097235
 H         5.190306        -0.961556        -0.949814
 H         5.331198         0.418245         0.125902
 H         2.967323         0.529262         1.669313
 H         3.152615         2.578044        -0.238548
 H         2.586156         2.106587        -1.894002
