19
Iteration:  4179charge 0 multiplicity 1
 C         0.034353        -0.667098         0.503408
 C         1.450181        -0.119663         0.208004
 C         1.932281         1.002576        -0.635637
 C         3.343985         0.502063        -0.251229
 C         4.279027         0.037178        -1.321494
 O         3.452447        -1.069513        -1.587592
 C         2.715108        -0.917125        -0.209548
 C         3.412446         0.768970         1.214525
 O         2.072009         0.383795         1.664480
 H        -0.801098        -0.713930        -0.162678
 H         0.039644        -1.698631         0.865136
 H        -0.434436        -0.141741         1.409425
 H         1.606058         0.913443        -1.640694
 H         1.676124         2.102362        -0.453580
 H         4.371696         0.675476        -2.239532
 H         5.320616        -0.250850        -1.049449
 H         3.082758        -1.973419         0.354305
 H         4.314031         0.192426         1.643338
 H         3.582364         1.761625         1.498792
