19
Iteration:  2271charge 0 multiplicity 1
 C         0.079983        -0.889760         0.402964
 C         1.491398        -0.144172         0.318473
 C         1.834421         0.599832        -0.935478
 C         3.317367         0.519443        -0.326456
 C         4.403031        -0.275151        -1.126533
 O         3.531312        -1.450445        -1.056447
 C         2.919541        -0.841926         0.177133
 C         3.252266         1.407517         0.829165
 O         1.896267         0.976068         1.321991
 H        -0.640619        -0.511222         1.301446
 H        -0.423829        -0.623592        -0.527962
 H         0.224029        -2.010300         0.471424
 H         1.791660         0.078070        -1.833825
 H         1.261017         1.512974        -1.073381
 H         4.756867        -0.070632        -2.149424
 H         5.275159        -0.577997        -0.397636
 H         3.319133        -1.170332         1.140067
 H         3.919055         1.091548         1.729564
 H         3.256504         2.547561         0.581160
