19
Iteration:  2376charge 0 multiplicity 1
 C         0.081336        -0.695807         0.463707
 C         1.502160        -0.226270         0.179663
 C         1.869746         0.531226        -0.996317
 C         3.291233         0.625482        -0.408838
 C         4.431560        -0.248228        -1.172518
 O         3.462542        -1.331457        -0.995282
 C         2.903460        -0.819937         0.224158
 C         3.210704         1.319947         0.906435
 O         1.964282         0.752898         1.377381
 H        -0.530377        -0.331060        -0.279134
 H        -0.010874        -1.764762         0.489893
 H        -0.296584        -0.296698         1.392496
 H         2.084996        -0.253811        -1.830009
 H         1.353710         1.474478        -1.372459
 H         4.602045        -0.142180        -2.256994
 H         5.394023        -0.324624        -0.676727
 H         3.131341        -1.317977         1.198959
 H         4.038793         1.157959         1.706755
 H         3.076935         2.400193         0.722265
