19
Iteration:  1972
 C         0.152302        -0.829429         0.565516
 C         1.532035        -0.186498         0.215862
 C         1.987904         0.502871        -1.232774
 C         3.359233         0.549645        -0.440127
 C         4.387849        -0.369327        -1.062766
 O         3.557744        -1.519429        -0.774379
 C         2.929057        -0.699689         0.330908
 C         3.074776         1.557209         0.651364
 O         1.779831         0.895337         1.275611
 H         0.162736        -1.304951         1.574778
 H        -0.674271        -0.041031         0.453178
 H        -0.183537        -1.578999        -0.236468
 H         1.976060        -0.277545        -1.912305
 H         1.580761         1.478129        -1.601065
 H         4.650222        -0.170507        -2.107521
 H         5.349567        -0.445066        -0.493942
 H         3.205461        -0.877274         1.337636
 H         3.748297         1.402272         1.594310
 H         2.861067         2.682049         0.600974
