19
Iteration:  3820charge 0 multiplicity 1
 C         0.164301        -0.645473         0.381541
 C         1.565244        -0.131840         0.281341
 C         1.940710         1.055250        -0.668924
 C         3.330985         0.461801        -0.201294
 C         4.193565         0.073679        -1.353138
 O         3.190488        -1.067719        -1.614527
 C         2.806600        -0.934745        -0.139134
 C         3.436381         0.894093         1.268903
 O         2.114129         0.218210         1.688133
 H        -0.031377        -1.712378        -0.118533
 H        -0.115218        -0.690103         1.503130
 H        -0.492309        -0.012202        -0.328777
 H         1.650598         0.977883        -1.615896
 H         1.784881         2.026230        -0.314387
 H         4.278901         0.746100        -2.198798
 H         5.194444        -0.412550        -1.170552
 H         3.144622        -1.788830         0.440256
 H         4.254239         0.413915         1.762041
 H         3.356415         1.942142         1.588626
