19
Iteration:  4012charge 0 multiplicity 1
 C         0.030004        -0.606395         0.498071
 C         1.528057        -0.261364         0.313916
 C         1.945549         0.967357        -0.697225
 C         3.372669         0.580764        -0.205274
 C         4.291479         0.021607        -1.310028
 O         3.253765        -1.011504        -1.628960
 C         2.828650        -0.949301        -0.228088
 C         3.419176         0.923042         1.250545
 O         2.073698         0.227863         1.634864
 H        -0.405447        -0.958654        -0.420298
 H        -0.112300        -1.443902         1.220356
 H        -0.573645         0.219103         0.852092
 H         1.810677         1.046196        -1.876259
 H         1.565428         1.978467        -0.408492
 H         4.632319         0.704969        -2.154388
 H         5.125779        -0.409172        -0.828438
 H         3.226570        -1.917323         0.340971
 H         4.197487         0.411569         1.836465
 H         3.460222         1.969937         1.432710
