19
Iteration:  1669
 C         0.287016        -0.819711         0.615948
 C         1.549510        -0.146756         0.142369
 C         1.963299         0.369711        -1.242456
 C         3.344494         0.542919        -0.491623
 C         4.464637        -0.396829        -0.980792
 O         3.573472        -1.563273        -0.509962
 C         2.919204        -0.686558         0.326485
 C         2.926248         1.633130         0.601448
 O         1.722704         0.974549         1.065314
 H         0.405804        -1.870766         0.780953
 H        -0.109415        -0.478224         1.559712
 H        -0.443990        -0.675976        -0.180742
 H         2.089224        -0.458550        -1.921757
 H         1.497935         1.282760        -1.766043
 H         4.661813        -0.405142        -2.061851
 H         5.444081        -0.319389        -0.450996
 H         3.117935        -0.936897         1.419585
 H         3.446464         1.813640         1.492870
 H         2.851235         2.698296         0.153259
