19
Iteration:  1436charge 0 multiplicity 1
 C         0.181614        -0.714526         0.554027
 C         1.510420        -0.191391         0.223636
 C         1.967536         0.159416        -1.218739
 C         3.328802         0.471842        -0.426934
 C         4.479671        -0.337381        -0.906939
 O         3.753016        -1.552576        -0.419976
 C         2.973686        -0.738440         0.440756
 C         2.893450         1.672222         0.482012
 O         1.658553         1.093859         0.876576
 H         0.127982        -1.780971         0.695121
 H        -0.225772        -0.235249         1.441128
 H        -0.486732        -0.564897        -0.305146
 H         2.127858        -0.767426        -1.772282
 H         1.480384         0.882514        -1.973216
 H         4.682394        -0.460498        -1.949858
 H         5.448433        -0.376555        -0.382740
 H         3.225972        -0.763897         1.554639
 H         3.497264         2.019562         1.281030
 H         2.672383         2.708838        -0.098623
