19
Iteration:  3307charge 0 multiplicity 1
 C         0.181705        -0.671847         0.430484
 C         1.531310        -0.078393         0.273095
 C         1.886091         0.937946        -0.819332
 C         3.332242         0.697205        -0.321953
 C         4.202530        -0.128280        -1.309290
 O         3.361785        -1.324064        -1.369660
 C         2.867114        -0.848184        -0.074272
 C         3.364568         0.985762         1.230147
 O         1.969560         0.430805         1.554521
 H        -0.260141        -0.364626         1.417456
 H        -0.438929        -0.758774        -0.588186
 H         0.474747        -1.775068         0.574582
 H         1.809754         0.494828        -1.710759
 H         1.417422         1.895529        -0.711483
 H         4.276520         0.252224        -2.331310
 H         5.203693        -0.247046        -0.926473
 H         3.359329        -1.395621         0.757071
 H         4.260152         0.439911         1.711821
 H         3.359015         2.196174         1.499933
