19
Iteration:  3887
 C         0.117695        -0.658542         0.583173
 C         1.504379        -0.170564         0.314607
 C         1.979448         1.044701        -0.639965
 C         3.410568         0.462996        -0.199554
 C         4.261816         0.068300        -1.334236
 O         3.348182        -1.072180        -1.631332
 C         2.662013        -0.940496        -0.241135
 C         3.379119         0.906656         1.267524
 O         2.078234         0.258675         1.534371
 H        -0.324067        -1.488580        -0.206781
 H        -0.090923        -1.105811         1.587338
 H        -0.624060         0.158269         0.242962
 H         1.798944         0.950655        -1.588078
 H         1.821254         1.987637        -0.308437
 H         4.320167         0.795756        -2.169911
 H         5.319110        -0.268930        -1.084341
 H         2.852374        -1.894131         0.249016
 H         4.148519         0.483752         1.892341
 H         3.333171         2.011630         1.482253
