19
Iteration:  1946
 C         0.268903        -0.767313         0.595828
 C         1.523048        -0.149420         0.146987
 C         1.919135         0.573280        -1.059042
 C         3.374540         0.429352        -0.270733
 C         4.455969        -0.293477        -1.073102
 O         3.622029        -1.623374        -0.754530
 C         2.863030        -0.920198         0.238295
 C         2.956826         1.636543         0.649982
 O         1.789635         0.996718         1.127407
 H         0.562458        -1.719762         1.087301
 H        -0.379786        -0.180308         1.193365
 H        -0.326919        -0.978539        -0.243002
 H         1.782360        -0.157938        -1.948101
 H         1.524372         1.567267        -1.293096
 H         4.536358        -0.058925        -2.207728
 H         5.514507        -0.418688        -0.735027
 H         2.829920        -1.414240         1.271991
 H         3.443650         1.813538         1.513943
 H         2.748680         2.646208         0.221375
