19
Iteration:  4034charge 0 multiplicity 1
 C         0.120813        -0.627712         0.477669
 C         1.476471        -0.166718         0.328119
 C         1.921148         1.009403        -0.567956
 C         3.368360         0.392703        -0.156741
 C         4.349418         0.028509        -1.298718
 O         3.297708        -0.997110        -1.696294
 C         2.736803        -0.928097        -0.255118
 C         3.319397         0.907008         1.239763
 O         2.140448         0.264948         1.588287
 H        -0.193194        -1.348377        -0.272824
 H         0.056990        -1.165383         1.462937
 H        -0.659897         0.132389         0.479022
 H         1.524806         0.711902        -1.647662
 H         1.799947         2.061001        -0.543589
 H         4.475490         0.853370        -2.086889
 H         5.272299        -0.455485        -1.039284
 H         2.938530        -1.776819         0.556860
 H         4.169828         0.519332         1.836297
 H         3.252975         1.974381         1.328978
