19
Iteration:  2213charge 0 multiplicity 1
 C         0.073435        -0.744973         0.557719
 C         1.539544        -0.160375         0.195882
 C         2.012426         0.633420        -1.134236
 C         3.353633         0.636066        -0.409908
 C         4.350520        -0.269568        -1.180326
 O         3.542287        -1.519961        -0.949215
 C         2.999428        -0.826762         0.203065
 C         3.057426         1.431950         0.982986
 O         1.822649         0.770414         1.277671
 H         0.160743        -1.311952         1.494714
 H        -0.516808         0.142364         0.856754
 H        -0.456906        -1.306571        -0.231094
 H         2.119606        -0.225532        -1.925687
 H         1.433406         1.485808        -1.435282
 H         4.467199        -0.144509        -2.248353
 H         5.361397        -0.522162        -0.749432
 H         3.252881        -1.053686         1.320278
 H         3.807092         1.097158         1.657667
 H         3.051268         2.612504         0.981867
