19
Iteration:  4519
 C         0.135110        -0.739816         0.459587
 C         1.497391        -0.085813         0.239423
 C         1.986889         1.101303        -0.644962
 C         3.370619         0.531043        -0.198027
 C         4.165488         0.055749        -1.396488
 O         3.272886        -1.104984        -1.501656
 C         2.786522        -0.861259        -0.182922
 C         3.445862         0.704581         1.266148
 O         2.077792         0.325096         1.564992
 H        -0.124441        -1.164804        -0.522574
 H         0.145534        -1.477686         1.237580
 H        -0.515404         0.103141         0.803728
 H         1.645666         0.979296        -1.822948
 H         1.658393         2.172346        -0.380136
 H         4.164951         0.692011        -2.263144
 H         5.152551        -0.210770        -1.059086
 H         3.076206        -1.640974         0.511016
 H         4.162197         0.048176         1.827827
 H         3.523060         1.682462         1.694052
