19
Iteration:  4274
 C         0.108701        -0.731174         0.417792
 C         1.541616        -0.179584         0.282483
 C         1.963943         1.028892        -0.565357
 C         3.337185         0.506966        -0.221669
 C         4.249108         0.073489        -1.338096
 O         3.230610        -1.068034        -1.604195
 C         2.731796        -0.925245        -0.215554
 C         3.471199         0.819639         1.308239
 O         2.065800         0.381546         1.572119
 H        -0.034619        -1.552272        -0.357061
 H        -0.009190        -1.195054         1.467489
 H        -0.656644         0.081020         0.214395
 H         1.766073         1.018303        -1.712022
 H         1.826977         2.010254        -0.292188
 H         4.492354         0.749602        -2.212384
 H         5.180664        -0.297644        -0.953324
 H         3.158582        -1.904657         0.405707
 H         4.178300         0.199596         1.899545
 H         3.660931         1.935660         1.590233
