19
Iteration:  2202charge 0 multiplicity 1
 C         0.098443        -0.752780         0.533643
 C         1.474922        -0.209242         0.171478
 C         1.935140         0.569012        -1.059159
 C         3.341841         0.592520        -0.369902
 C         4.397541        -0.281410        -1.172527
 O         3.575845        -1.469765        -0.935420
 C         2.917679        -0.822295         0.214740
 C         3.174938         1.398949         0.882671
 O         1.802534         0.857248         1.306781
 H         0.160405        -1.650068         1.143316
 H        -0.415573         0.073320         1.075839
 H        -0.532472        -1.014255        -0.338886
 H         1.994076         0.029251        -2.088234
 H         1.506921         1.541523        -1.257997
 H         4.584988         0.008735        -2.201870
 H         5.345622        -0.298138        -0.557837
 H         3.458124        -1.357529         1.065330
 H         3.907610         1.163765         1.631955
 H         3.003848         2.544539         0.738418
