19
Iteration:   364
 C         0.230084        -0.731167         0.678632
 C         1.516774        -0.216804         0.148952
 C         2.120497        -0.507115        -1.200430
 C         3.347061         0.352695        -0.588345
 C         4.691883        -0.426177        -0.408371
 O         3.962770        -1.298449         0.538586
 C         2.995317        -0.273022         0.745916
 C         2.620756         1.653192        -0.513045
 O         1.303476         1.234419         0.142103
 H         0.134620        -0.529875         1.812886
 H        -0.584195        -0.199960         0.211281
 H         0.087222        -1.837981         0.577068
 H         2.474042        -1.530034        -1.394516
 H         1.665625        -0.122384        -2.143378
 H         5.066456        -0.948826        -1.274252
 H         5.468451         0.178678         0.153066
 H         3.070517         0.326740         1.665066
 H         3.112821         2.482257         0.107059
 H         2.130784         2.180061        -1.391005
