19
Iteration:  2065
 C         0.225955        -0.682217         0.476770
 C         1.567157        -0.205045         0.181761
 C         1.928255         0.475871        -1.145889
 C         3.276981         0.532042        -0.430049
 C         4.379826        -0.259320        -1.040301
 O         3.550784        -1.509859        -0.831357
 C         2.935495        -0.817210         0.235227
 C         3.013354         1.473415         0.779480
 O         1.830730         0.871983         1.312707
 H        -0.454673         0.185210         0.274188
 H        -0.000777        -1.572147        -0.036179
 H         0.190844        -0.926385         1.519164
 H         1.794629        -0.292138        -1.942303
 H         1.337645         1.409033        -1.386068
 H         4.794945        -0.098998        -2.050440
 H         5.168630        -0.322127        -0.313669
 H         3.461151        -1.155477         1.180645
 H         3.887989         1.475394         1.573930
 H         2.944036         2.469863         0.360148
