19
Iteration:  3194charge 0 multiplicity 1
 C         0.188344        -0.732423         0.414503
 C         1.502687        -0.032994         0.220662
 C         1.852451         1.023835        -0.741493
 C         3.308419         0.494522        -0.266145
 C         4.249697        -0.142075        -1.299933
 O         3.435019        -1.347563        -1.342229
 C         2.785896        -0.916455        -0.006461
 C         3.344120         1.118724         1.114700
 O         2.012916         0.486414         1.527378
 H         0.371451        -1.510049         1.254981
 H        -0.731067        -0.176634         0.559477
 H         0.055720        -1.467992        -0.516068
 H         1.620682         0.898772        -1.788935
 H         1.757053         2.012916        -0.418824
 H         4.277251         0.393151        -2.232186
 H         5.275906        -0.241597        -1.029697
 H         3.019092        -1.676433         0.754772
 H         4.193908         0.612635         1.732819
 H         3.367003         2.349166         1.050548
