19
Iteration:  4344
 C         0.058669        -0.622824         0.416184
 C         1.476310        -0.167987         0.294075
 C         1.907397         0.951383        -0.570095
 C         3.395579         0.425210        -0.185635
 C         4.312901         0.064454        -1.367484
 O         3.295299        -1.036386        -1.605036
 C         2.779579        -0.971091        -0.193541
 C         3.407135         0.945995         1.225434
 O         2.120587         0.275153         1.595849
 H        -0.503159        -0.300121        -0.494383
 H         0.009081        -1.740018         0.620904
 H        -0.354900         0.028427         1.340728
 H         1.518751         0.894049        -1.482019
 H         1.548394         1.921712        -0.153538
 H         4.470277         0.587398        -2.313085
 H         5.286596        -0.451190        -1.083740
 H         3.068853        -1.743263         0.500124
 H         4.197851         0.644276         2.018518
 H         3.211410         2.006819         1.316264
