19
Iteration:  2186charge 0 multiplicity 1
 C         0.171204        -0.757232         0.483609
 C         1.510287        -0.142077         0.275088
 C         1.834592         0.603101        -0.996506
 C         3.311064         0.409569        -0.322231
 C         4.423657        -0.187143        -1.053396
 O         3.624347        -1.449550        -0.981449
 C         2.829473        -0.928447         0.206340
 C         3.155480         1.426137         0.795105
 O         1.879597         0.901449         1.216531
 H         0.217308        -1.863333         0.657524
 H        -0.408200        -0.242393         1.229859
 H        -0.409035        -0.700891        -0.437647
 H         1.646517         0.011128        -1.832346
 H         1.352193         1.636048        -0.948722
 H         4.479620         0.055889        -2.142503
 H         5.349381        -0.376519        -0.576654
 H         2.994362        -1.218007         1.237931
 H         3.933070         1.192723         1.606372
 H         3.113359         2.368210         0.350356
