19
Iteration:   374charge 0 multiplicity 1
 C         0.276154        -0.756164         0.682443
 C         1.512637        -0.180680         0.167352
 C         2.118047        -0.599491        -1.194585
 C         3.301134         0.378075        -0.575220
 C         4.571869        -0.376892        -0.425008
 O         3.961016        -1.314066         0.486115
 C         2.980714        -0.261762         0.784424
 C         2.655310         1.670330        -0.409736
 O         1.337054         1.266368         0.063929
 H        -0.060321        -0.287809         1.653990
 H        -0.478089        -0.644986        -0.072977
 H         0.534242        -1.824469         0.737542
 H         2.348147        -1.662376        -1.238886
 H         1.549205        -0.203695        -2.054691
 H         5.030068        -0.813927        -1.269907
 H         5.336896         0.119350         0.213293
 H         3.314921         0.310943         1.622816
 H         3.171491         2.339771         0.274239
 H         2.643745         2.146693        -1.450767
