19
Iteration:  1689charge 0 multiplicity 1
 C         0.115413        -0.859497         0.603556
 C         1.455332        -0.187461         0.102480
 C         1.987624         0.445827        -1.221201
 C         3.341333         0.543295        -0.361679
 C         4.399362        -0.436147        -0.986049
 O         3.767139        -1.599375        -0.586557
 C         2.895169        -0.737844         0.381055
 C         2.952512         1.686773         0.508629
 O         1.754395         1.006532         1.090331
 H         0.401593        -1.687531         1.280256
 H        -0.222333        -0.213909         1.404849
 H        -0.700218        -1.076746        -0.045259
 H         2.013563        -0.190125        -2.155502
 H         1.554259         1.479413        -1.422412
 H         4.715253        -0.346807        -2.047838
 H         5.441463        -0.354029        -0.447994
 H         3.257498        -0.982496         1.464541
 H         3.876675         1.882416         1.202087
 H         2.712293         2.693013        -0.049290
