19
Iteration:  4254charge 0 multiplicity 1
 C         0.148657        -0.732234         0.309513
 C         1.584993        -0.089689         0.302948
 C         1.970596         1.011431        -0.574084
 C         3.449316         0.466313        -0.159566
 C         4.200940        -0.029443        -1.355168
 O         3.174100        -0.994492        -1.614689
 C         2.755405        -0.960982        -0.161790
 C         3.392779         0.926955         1.274641
 O         2.103044         0.290497         1.661188
 H         0.053006        -1.582776        -0.420548
 H        -0.245595        -1.221334         1.307773
 H        -0.752646         0.002451         0.089622
 H         1.761448         0.966925        -1.612100
 H         1.724897         1.986737        -0.257243
 H         4.249723         0.797071        -2.157094
 H         5.212920        -0.509948        -1.255134
 H         3.033573        -1.718845         0.390080
 H         4.273422         0.569855         1.905333
 H         3.377168         2.040109         1.185974
