19
Iteration:  3504
 C         0.060440        -0.824146         0.417401
 C         1.490670        -0.149049         0.256881
 C         1.929835         1.063780        -0.660207
 C         3.372341         0.510376        -0.215783
 C         4.243724        -0.094637        -1.299114
 O         3.349342        -1.137317        -1.524406
 C         2.764080        -0.885814        -0.144053
 C         3.420497         0.998947         1.154108
 O         2.064146         0.462179         1.624208
 H         0.196139        -1.944539         0.487842
 H        -0.388045        -0.618727         1.337804
 H        -0.508098        -0.506658        -0.423797
 H         1.707464         0.942928        -1.726145
 H         1.575626         2.026841        -0.149262
 H         4.442852         0.411757        -2.296815
 H         5.205691        -0.564715        -0.878660
 H         3.156235        -1.735400         0.462460
 H         4.256344         0.464650         1.775321
 H         3.514088         2.073049         1.258241
