19
Iteration:  4275
 C         0.108365        -0.733828         0.422893
 C         1.546734        -0.175367         0.279848
 C         1.955003         1.032094        -0.575709
 C         3.342952         0.516256        -0.222673
 C         4.246611         0.071193        -1.335635
 O         3.235326        -1.070457        -1.606384
 C         2.738089        -0.931674        -0.214161
 C         3.470748         0.814165         1.314634
 O         2.062447         0.382546         1.568577
 H        -0.057845        -1.551820        -0.340797
 H        -0.039631        -1.207793         1.487153
 H        -0.687955         0.104770         0.239908
 H         1.775171         1.022378        -1.664914
 H         1.822518         1.998862        -0.297054
 H         4.483060         0.761905        -2.213516
 H         5.195658        -0.308873        -0.950794
 H         3.134576        -1.827148         0.385716
 H         4.193300         0.161568         1.898970
 H         3.663903         1.915268         1.580498
