19
Iteration:  4492charge 0 multiplicity 1
 C         0.066801        -0.605619         0.464324
 C         1.509799        -0.146118         0.245766
 C         1.970057         1.049363        -0.498263
 C         3.416650         0.495717        -0.180443
 C         4.197486         0.027462        -1.490684
 O         3.359337        -1.113419        -1.620879
 C         2.805879        -0.954596        -0.178906
 C         3.392301         0.859959         1.258279
 O         2.046316         0.268041         1.606772
 H        -0.122253        -1.377867        -0.281914
 H        -0.049143        -0.946610         1.524057
 H        -0.490581         0.284626         0.400784
 H         1.644844         1.029267        -1.545777
 H         1.567303         1.971345        -0.158652
 H         4.120218         0.788576        -2.348019
 H         5.284290        -0.196028        -1.179846
 H         3.057340        -1.875382         0.363568
 H         4.122303         0.367799         1.881701
 H         3.226203         1.934168         1.678438
