19
Iteration:  1644
 C         0.198839        -0.882523         0.514124
 C         1.496739        -0.167874         0.222685
 C         1.940696         0.278108        -1.090064
 C         3.281755         0.464804        -0.465771
 C         4.439187        -0.363297        -0.957443
 O         3.654621        -1.572291        -0.660470
 C         2.942201        -0.720172         0.494077
 C         3.056521         1.663980         0.558109
 O         1.692794         1.180789         0.979114
 H         0.282229        -1.897062         0.030732
 H         0.046404        -1.159454         1.556463
 H        -0.624795        -0.371687         0.081075
 H         2.018140        -0.582535        -1.863563
 H         1.425893         1.135505        -1.469003
 H         4.653807        -0.256981        -2.046524
 H         5.449655        -0.189292        -0.438485
 H         3.414820        -0.860907         1.520250
 H         3.620040         1.638053         1.563184
 H         3.034943         2.719378         0.221717
