19
Iteration:  3087charge 0 multiplicity 1
 C         0.184526        -0.674195         0.526288
 C         1.539023        -0.122566         0.241926
 C         1.873473         0.888126        -0.892539
 C         3.287156         0.596836        -0.320161
 C         4.283914        -0.150152        -1.217586
 O         3.452957        -1.273513        -1.263801
 C         2.806938        -0.932998        -0.045404
 C         3.307966         1.113275         1.080045
 O         1.982981         0.470247         1.471466
 H        -0.346108        -1.178204        -0.370171
 H         0.226290        -1.456628         1.295923
 H        -0.503672         0.244747         0.735664
 H         1.637559         0.487620        -1.898164
 H         1.446044         1.979024        -0.673665
 H         4.314427         0.295978        -2.231867
 H         5.353651        -0.362920        -0.832973
 H         3.308109        -1.384230         0.856692
 H         4.166317         0.642824         1.590464
 H         3.182564         2.136642         1.291458
