19
Iteration:  4134charge 0 multiplicity 1
 C         0.140474        -0.644856         0.437147
 C         1.494890        -0.222988         0.222209
 C         1.995051         1.024468        -0.686998
 C         3.394703         0.532289        -0.209934
 C         4.259811        -0.042511        -1.382519
 O         3.222441        -1.013085        -1.581776
 C         2.806837        -0.910858        -0.136858
 C         3.352555         0.977928         1.277833
 O         2.092185         0.197626         1.657028
 H        -0.495199        -0.535499        -0.442684
 H        -0.063140        -1.692722         0.785594
 H        -0.249483         0.025385         1.289452
 H         1.787738         1.069104        -1.813808
 H         1.642404         1.981481        -0.402580
 H         4.442464         0.617326        -2.304827
 H         5.214829        -0.525850        -1.116040
 H         3.199964        -1.812504         0.552547
 H         4.086928         0.532645         2.019096
 H         3.221917         1.996881         1.531159
