19
Iteration:   916charge 0 multiplicity 1
 C         0.184615        -0.777019         0.576885
 C         1.555457        -0.209662         0.248524
 C         1.964520        -0.178833        -1.230664
 C         3.272848         0.438422        -0.459420
 C         4.536562        -0.414322        -0.751969
 O         3.866697        -1.542107         0.024036
 C         2.983859        -0.570747         0.700680
 C         2.871699         1.795272         0.031848
 O         1.482727         1.300703         0.475310
 H        -0.335117        -0.292961         1.387898
 H        -0.415604        -0.960115        -0.276216
 H         0.467886        -1.834344         0.826405
 H         2.334804        -1.036066        -1.854771
 H         1.350724         0.426686        -1.813945
 H         4.955597        -0.565000        -1.785544
 H         5.275564        -0.096521        -0.024578
 H         3.246789        -0.306954         1.767421
 H         3.498133         2.189963         0.730053
 H         2.748133         2.530810        -0.764644
