19
Iteration:  2195charge 0 multiplicity 1
 C         0.127975        -0.741165         0.510514
 C         1.481342        -0.214362         0.194692
 C         1.887220         0.558167        -1.032872
 C         3.334785         0.494367        -0.334585
 C         4.398187        -0.247858        -1.119812
 O         3.601017        -1.436307        -0.952172
 C         2.870917        -0.831514         0.194678
 C         3.194342         1.376688         0.820826
 O         1.815548         0.889192         1.283408
 H         0.211906        -1.767558         1.074470
 H        -0.411935        -0.108482         1.215406
 H        -0.379495        -0.803686        -0.483224
 H         1.784352         0.066883        -1.946397
 H         1.492862         1.569112        -1.081079
 H         4.606151        -0.062872        -2.186579
 H         5.417390        -0.261565        -0.609620
 H         3.209833        -1.254261         1.100757
 H         3.938226         1.394001         1.691754
 H         3.083106         2.428193         0.684249
