19
Iteration:  1309charge 0 multiplicity 1
 C         0.224000        -0.803619         0.611010
 C         1.488019        -0.204472         0.176144
 C         2.084238         0.185119        -1.276961
 C         3.317834         0.472430        -0.398295
 C         4.462154        -0.382687        -0.834458
 O         3.826012        -1.661224        -0.311485
 C         2.850009        -0.677855         0.511653
 C         2.918618         1.765307         0.276527
 O         1.546353         1.192789         0.842164
 H        -0.248568        -0.231584         1.479183
 H        -0.438913        -0.797884        -0.305181
 H         0.394645        -1.854063         0.944096
 H         2.158367        -0.750062        -1.857189
 H         1.614577         0.996612        -1.827728
 H         4.458261        -0.490275        -1.972793
 H         5.488518        -0.179696        -0.346756
 H         3.199154        -0.816960         1.513683
 H         3.770352         2.013049         1.079061
 H         2.660579         2.539522        -0.412719
