19
Iteration:   930
 C         0.164178        -0.863844         0.585159
 C         1.483332        -0.209241         0.236152
 C         2.029111        -0.099492        -1.172047
 C         3.292855         0.379042        -0.530669
 C         4.546911        -0.367039        -0.699256
 O         3.910203        -1.516105         0.011995
 C         2.968558        -0.583695         0.665367
 C         2.855890         1.695833        -0.023135
 O         1.503490         1.354238         0.511623
 H        -0.530400        -0.012640         0.906635
 H        -0.306263        -1.215222        -0.404798
 H         0.173140        -1.562032         1.448926
 H         1.966788        -1.061492        -1.611568
 H         1.491762         0.749899        -1.751244
 H         4.718117        -0.740833        -1.702838
 H         5.456750         0.041513        -0.247994
 H         3.307516        -0.510773         1.729989
 H         3.459801         2.081129         0.908688
 H         2.711828         2.590965        -0.821812
