19
Iteration:  2196charge 0 multiplicity 1
 C         0.122552        -0.743182         0.514299
 C         1.478895        -0.216420         0.187867
 C         1.894211         0.553635        -1.036864
 C         3.335860         0.510900        -0.337207
 C         4.400016        -0.255552        -1.127034
 O         3.597374        -1.439905        -0.948471
 C         2.876097        -0.826931         0.197742
 C         3.193958         1.378092         0.825059
 O         1.811535         0.886032         1.289125
 H         0.205837        -1.738156         1.084878
 H        -0.409547        -0.087327         1.198155
 H        -0.390497        -0.825952        -0.460777
 H         1.813106         0.081301        -1.955245
 H         1.493987         1.588476        -1.113649
 H         4.615670        -0.050000        -2.199694
 H         5.385644        -0.252735        -0.616948
 H         3.260528        -1.278436         1.077422
 H         3.940116         1.385456         1.697057
 H         3.077804         2.410290         0.713174
