19
Iteration:   700charge 0 multiplicity 1
 C         0.218702        -0.852806         0.684782
 C         1.514819        -0.241126         0.130974
 C         2.087435        -0.194943        -1.287756
 C         3.388735         0.446557        -0.464857
 C         4.606665        -0.494546        -0.631829
 O         3.867394        -1.517661         0.312301
 C         2.965521        -0.442187         0.701284
 C         2.630750         1.830023        -0.223494
 O         1.448935         1.295826         0.343814
 H         0.481957        -1.717754         1.343661
 H        -0.117208        -0.101065         1.351720
 H        -0.673707        -1.004128         0.008571
 H         2.474686        -1.152060        -1.745302
 H         1.767920         0.586005        -1.928638
 H         4.888967        -0.901626        -1.623414
 H         5.568010        -0.148745        -0.153046
 H         3.112411        -0.201416         1.757759
 H         3.231346         2.603968         0.332894
 H         2.404675         2.164657        -1.176556
