19
Iteration:  4148charge 0 multiplicity 1
 C         0.089981        -0.619970         0.524757
 C         1.593537        -0.136529         0.204855
 C         1.977170         0.959869        -0.643425
 C         3.420523         0.603258        -0.178767
 C         4.233606        -0.003779        -1.318908
 O         3.236238        -1.067623        -1.574545
 C         2.831455        -0.892728        -0.240139
 C         3.297003         0.872424         1.301965
 O         2.068552         0.222432         1.515554
 H        -0.630516        -0.405923        -0.178306
 H         0.178981        -1.613463         0.748925
 H        -0.265142        -0.077758         1.368334
 H         1.849132         0.588318        -1.609257
 H         1.589521         2.077417        -0.319128
 H         4.419919         0.522576        -2.190654
 H         5.130073        -0.437151        -0.901175
 H         3.280324        -1.798318         0.480644
 H         4.194998         0.509848         1.787492
 H         3.209738         1.939577         1.499288
