19
Iteration:  2909
 C         0.201495        -0.736622         0.409455
 C         1.575028        -0.109990         0.274991
 C         1.875400         0.712753        -0.861320
 C         3.344454         0.604209        -0.321461
 C         4.357302        -0.172091        -1.279512
 O         3.371967        -1.300383        -1.226986
 C         2.863637        -0.874958         0.019021
 C         3.235355         1.178606         1.104511
 O         1.948834         0.605303         1.497395
 H        -0.086518        -0.694075         1.455415
 H        -0.561056        -0.021237         0.066261
 H         0.040593        -1.627236        -0.213656
 H         1.633006         0.164791        -1.827927
 H         1.290941         1.823678        -0.875581
 H         4.359288         0.272381        -2.302317
 H         5.373600        -0.495866        -0.891213
 H         3.248653        -1.479717         0.881401
 H         4.109641         0.899557         1.682289
 H         3.182741         2.232577         1.113074
