19
Iteration:  4490charge 0 multiplicity 1
 C         0.072087        -0.599094         0.469928
 C         1.519395        -0.137073         0.252743
 C         1.957197         1.032488        -0.519470
 C         3.420507         0.494927        -0.174853
 C         4.187416         0.024147        -1.492407
 O         3.365766        -1.090852        -1.615483
 C         2.794352        -0.952040        -0.180441
 C         3.376333         0.857687         1.266900
 O         2.058835         0.257957         1.606803
 H        -0.159276        -1.417541        -0.346873
 H        -0.080726        -0.921674         1.548611
 H        -0.473949         0.343371         0.331479
 H         1.661238         0.977170        -1.398765
 H         1.629079         1.981075        -0.181910
 H         4.157731         0.724446        -2.348785
 H         5.227182        -0.202490        -1.161187
 H         3.102137        -2.003118         0.336847
 H         4.159709         0.402570         1.867242
 H         3.214208         1.959024         1.573804
