19
Iteration:  4861charge 0 multiplicity 1
 C         0.209365        -0.760094         0.352847
 C         1.507010        -0.116869         0.265614
 C         1.959347         1.093603        -0.539006
 C         3.372898         0.501630        -0.220219
 C         4.221523         0.015252        -1.402644
 O         3.251783        -1.095543        -1.572641
 C         2.711039        -0.864533        -0.156518
 C         3.455768         0.809834         1.256143
 O         2.025359         0.359472         1.644450
 H         0.211259        -1.553838        -0.371190
 H         0.106479        -1.152448         1.320844
 H        -0.446974         0.022981         0.359612
 H         1.705820         1.088750        -1.715602
 H         1.618887         2.131277        -0.232267
 H         4.280630         0.550137        -2.371965
 H         5.114005        -0.553445        -1.179155
 H         3.113699        -1.711273         0.586970
 H         4.203531         0.118310         1.767059
 H         3.563904         1.868550         1.567152
