19
Iteration:  3423
 C         0.128173        -0.627551         0.461979
 C         1.449952        -0.104342         0.298569
 C         1.850953         0.988657        -0.653800
 C         3.273261         0.492589        -0.255157
 C         4.241373        -0.023117        -1.374479
 O         3.546862        -1.244963        -1.443515
 C         2.791218        -0.961103        -0.152090
 C         3.393888         0.930063         1.161997
 O         1.998081         0.458503         1.563063
 H        -0.371065        -0.822513        -0.407157
 H         0.264183        -1.433001         1.028971
 H        -0.499808        -0.019459         1.127801
 H         1.668541         0.648127        -1.782648
 H         1.542863         2.095022        -0.377800
 H         4.306351         0.345079        -2.417745
 H         5.349236        -0.223256        -1.015583
 H         3.095541        -1.765257         0.528647
 H         4.171001         0.457453         1.811251
 H         3.365250         2.131525         1.302527
