19
Iteration:  3241
 C         0.108915        -0.611960         0.557440
 C         1.536879        -0.184526         0.310512
 C         1.927594         0.771307        -0.857964
 C         3.406203         0.478965        -0.243326
 C         4.320759        -0.082493        -1.309308
 O         3.364070        -1.132070        -1.458045
 C         2.886181        -0.938243        -0.083994
 C         3.299839         1.024023         1.163737
 O         1.926194         0.545276         1.544152
 H        -0.207390        -0.571677         1.633787
 H        -0.577967        -0.007869        -0.196065
 H         0.021521        -1.731198         0.273568
 H         1.849183         0.356412        -1.766400
 H         1.416452         1.739540        -0.773672
 H         4.418149         0.466556        -2.241698
 H         5.355219        -0.389536        -1.115153
 H         3.396001        -1.614838         0.637473
 H         3.955988         0.600185         2.004395
 H         3.046921         2.234263         1.276127
