19
Iteration:  1991
 C         0.167955        -0.799626         0.445593
 C         1.508898        -0.148018         0.262948
 C         1.832376         0.367649        -1.070919
 C         3.288412         0.597018        -0.448226
 C         4.406733        -0.288524        -1.055827
 O         3.562217        -1.493080        -0.752137
 C         2.935820        -0.780773         0.267144
 C         3.164755         1.438623         0.799959
 O         1.831871         0.992795         1.143151
 H        -0.062855        -0.773916         1.531926
 H        -0.622062        -0.335644        -0.126546
 H         0.193202        -1.811241         0.099586
 H         1.916282        -0.253439        -1.923808
 H         1.182010         1.256923        -1.385736
 H         4.767492        -0.274250        -2.141740
 H         5.367374        -0.206000        -0.479614
 H         3.400485        -0.897421         1.296742
 H         3.937587         1.312073         1.455314
 H         3.108351         2.534352         0.575204
