19
Iteration:  4738
 C         0.085999        -0.701616         0.462801
 C         1.481247        -0.109255         0.217770
 C         1.952449         1.096220        -0.653167
 C         3.348715         0.588967        -0.251724
 C         4.193639         0.036127        -1.376922
 O         3.356736        -1.158571        -1.528405
 C         2.735778        -0.858615        -0.234387
 C         3.463120         0.826387         1.284968
 O         2.084961         0.253281         1.667897
 H        -0.448518        -0.779035        -0.437635
 H         0.196973        -1.605611         0.931496
 H        -0.394067        -0.036480         1.051410
 H         1.905745         0.858111        -1.658132
 H         1.627614         2.132053        -0.338346
 H         4.165601         0.622481        -2.297245
 H         5.201815        -0.380937        -1.220129
 H         2.987545        -1.782043         0.368304
 H         4.215205         0.214562         1.888557
 H         3.498571         1.875971         1.642422
