19
Iteration:  4340charge 0 multiplicity 1
 C         0.064263        -0.599718         0.442321
 C         1.460786        -0.169068         0.270721
 C         1.896092         0.979994        -0.565548
 C         3.362011         0.411955        -0.168330
 C         4.304791         0.044462        -1.351656
 O         3.320865        -1.024249        -1.605145
 C         2.784997        -0.964186        -0.208623
 C         3.416582         0.935993         1.217282
 O         2.125931         0.259791         1.585406
 H        -0.527054        -0.388468        -0.430754
 H         0.112279        -1.686386         0.672748
 H        -0.365142        -0.046493         1.250412
 H         1.607328         0.793020        -1.685036
 H         1.637396         1.897745        -0.098583
 H         4.392162         0.617543        -2.311898
 H         5.246092        -0.411810        -1.154997
 H         3.055035        -1.796042         0.673914
 H         4.112601         0.698033         2.004910
 H         3.264348         2.051840         1.311228
