19
Iteration:  2549
 C         0.072813        -0.836660         0.486183
 C         1.469814        -0.192197         0.248043
 C         1.859804         0.683244        -0.962400
 C         3.356004         0.575911        -0.357095
 C         4.347013        -0.193567        -1.186245
 O         3.521051        -1.431539        -1.109836
 C         2.902058        -0.838708         0.151165
 C         3.295512         1.298570         0.962443
 O         1.894973         0.869397         1.342891
 H         0.134203        -1.846592         0.993321
 H        -0.599932        -0.171966         1.245701
 H        -0.569816        -0.784734        -0.474819
 H         1.816891         0.141146        -1.891308
 H         1.501852         1.651860        -1.058099
 H         4.772680        -0.097044        -2.228907
 H         5.185826        -0.414269        -0.479355
 H         3.307413        -1.381742         1.054481
 H         3.980170         0.727151         1.663216
 H         3.333382         2.395823         0.899230
