19
Iteration:  2157
 C         0.106755        -0.802018         0.466828
 C         1.507360        -0.152849         0.248330
 C         1.967936         0.555279        -1.032294
 C         3.310629         0.537494        -0.355136
 C         4.415118        -0.331610        -1.116068
 O         3.579056        -1.487903        -0.974307
 C         2.896821        -0.824008         0.176817
 C         3.126903         1.505413         0.820588
 O         1.832966         0.884685         1.361374
 H         0.062923        -1.737800        -0.004687
 H        -0.132182        -0.867248         1.560546
 H        -0.748758        -0.228942         0.056239
 H         1.824633        -0.077500        -1.984787
 H         1.488107         1.558615        -1.269378
 H         4.637268        -0.170454        -2.200363
 H         5.349831        -0.458040        -0.481437
 H         3.232246        -1.087502         1.280416
 H         3.897661         1.461251         1.536165
 H         2.974818         2.585217         0.371249
