19
Iteration:  3590charge 0 multiplicity 1
 C         0.117914        -0.626371         0.406982
 C         1.572584        -0.175423         0.298116
 C         1.923839         0.951877        -0.697396
 C         3.306957         0.474096        -0.223201
 C         4.257034        -0.014335        -1.304791
 O         3.299648        -1.060587        -1.632869
 C         2.784006        -0.984633        -0.109491
 C         3.361549         0.997965         1.246908
 O         2.092417         0.310179         1.628166
 H        -0.238216        -0.574930         1.475836
 H        -0.461874        -0.128353        -0.247650
 H        -0.024264        -1.695978         0.264282
 H         1.527811         0.830434        -1.723909
 H         1.579031         2.016589        -0.226101
 H         4.494931         0.603100        -2.154518
 H         5.258100        -0.357461        -0.916582
 H         3.203739        -1.775968         0.547305
 H         4.343201         0.602896         1.731839
 H         3.311897         2.179311         1.469647
