19
Iteration:   847charge 0 multiplicity 1
 C         0.233092        -0.863449         0.624200
 C         1.465601        -0.228353         0.197826
 C         1.951868        -0.116891        -1.252299
 C         3.288956         0.398503        -0.560520
 C         4.606427        -0.416759        -0.653701
 O         3.868251        -1.475016         0.148878
 C         2.917301        -0.509111         0.668152
 C         2.868748         1.725824        -0.087394
 O         1.515274         1.302069         0.457473
 H         0.330313        -1.935323         0.522277
 H        -0.031864        -0.612586         1.666753
 H        -0.542259        -0.427959         0.022676
 H         2.216764        -0.982179        -1.852824
 H         1.368809         0.572512        -1.945168
 H         5.070224        -0.932547        -1.519985
 H         5.353201         0.104436         0.013533
 H         3.106834        -0.372821         1.743240
 H         3.393382         2.158549         0.734690
 H         2.767850         2.509117        -0.751274
