19
Iteration:   410
 C         0.209175        -0.940060         0.771057
 C         1.504691        -0.273827         0.147246
 C         2.153662        -0.451517        -1.243351
 C         3.314633         0.366159        -0.547688
 C         4.598139        -0.460057        -0.433590
 O         3.931111        -1.268161         0.504184
 C         2.916720        -0.270757         0.743728
 C         2.726003         1.754780        -0.456464
 O         1.397435         1.365513         0.081055
 H        -0.715937        -0.281091         0.959213
 H        -0.175511        -1.817077         0.166884
 H         0.405658        -1.286107         1.845677
 H         2.426121        -1.513711        -1.530708
 H         1.555200        -0.030532        -2.093641
 H         4.754288        -0.987654        -1.435741
 H         5.551945         0.043801        -0.037949
 H         3.109294         0.161159         1.782371
 H         3.135300         2.559443         0.356310
 H         2.774893         2.100666        -1.575724
