19
Iteration:  1637charge 0 multiplicity 1
 C         0.129608        -0.927346         0.513132
 C         1.487629        -0.212239         0.305150
 C         1.949269         0.288846        -1.082437
 C         3.311250         0.508477        -0.395387
 C         4.453649        -0.320061        -1.021356
 O         3.681054        -1.594374        -0.614589
 C         2.925769        -0.758499         0.437198
 C         3.029548         1.687787         0.565807
 O         1.744862         1.222566         0.934816
 H         0.108832        -1.758640        -0.186097
 H         0.028739        -1.379455         1.508358
 H        -0.750115        -0.266034         0.281652
 H         2.012083        -0.489932        -1.813657
 H         1.485368         1.254986        -1.484301
 H         4.740792        -0.324149        -2.068766
 H         5.317496        -0.163688        -0.381501
 H         3.295079        -1.057660         1.440290
 H         3.605485         1.514606         1.397363
 H         3.056095         2.604628        -0.115429
