19
Iteration:  4097
 C         0.175613        -0.708583         0.337989
 C         1.542249        -0.117535         0.313871
 C         1.948606         1.040753        -0.576439
 C         3.332604         0.540861        -0.208441
 C         4.127026         0.030595        -1.409790
 O         3.284667        -1.100640        -1.594971
 C         2.744190        -0.933522        -0.144823
 C         3.499903         0.825182         1.300950
 O         2.037640         0.365561         1.648380
 H         0.079914        -1.281657        -0.705118
 H         0.118188        -1.468981         1.188863
 H        -0.623276         0.070372         0.371975
 H         1.858839         0.767318        -1.599015
 H         1.801640         2.019818        -0.275096
 H         4.178919         0.705881        -2.317680
 H         5.166327        -0.290957        -1.074565
 H         3.105635        -1.723577         0.358820
 H         4.182117         0.115433         1.742123
 H         3.681547         1.892361         1.652841
