19
Iteration:  2793
 C         0.137974        -0.709470         0.462510
 C         1.436798        -0.078086         0.335446
 C         1.892686         0.761135        -0.849807
 C         3.309451         0.487452        -0.282384
 C         4.345154        -0.121425        -1.246151
 O         3.553305        -1.393861        -1.239511
 C         2.864682        -0.978690         0.000199
 C         3.200720         1.281381         0.969584
 O         1.972924         0.665715         1.478217
 H        -0.184951        -1.232221        -0.496909
 H         0.038552        -1.443779         1.251986
 H        -0.547275         0.163473         0.597650
 H         1.725873         0.226105        -1.681577
 H         1.512579         1.700460        -0.932763
 H         4.539954         0.238777        -2.227731
 H         5.251195        -0.343518        -0.726069
 H         3.123602        -1.680132         0.792699
 H         3.989934         1.098389         1.728673
 H         3.040820         2.390899         0.764135
