19
Iteration:  4144charge 0 multiplicity 1
 C         0.083181        -0.632693         0.485304
 C         1.575689        -0.151000         0.200263
 C         1.993853         0.991525        -0.649996
 C         3.426333         0.600772        -0.174501
 C         4.223851        -0.033664        -1.334711
 O         3.229080        -1.041116        -1.577309
 C         2.837886        -0.912836        -0.209251
 C         3.289847         0.913242         1.295067
 O         2.080580         0.209625         1.563445
 H        -0.677943        -0.396611        -0.317180
 H         0.176045        -1.730891         0.843366
 H        -0.107125         0.017181         1.428122
 H         1.813114         0.625215        -1.730109
 H         1.639410         1.871124        -0.328122
 H         4.409243         0.566501        -2.325441
 H         5.157606        -0.474814        -0.901950
 H         3.216773        -1.730037         0.480974
 H         4.217637         0.455527         1.779072
 H         3.185516         1.970263         1.495866
