19
Iteration:  2104charge 0 multiplicity 1
 C         0.072104        -0.884311         0.536822
 C         1.452454        -0.149286         0.163740
 C         1.887018         0.602311        -1.027909
 C         3.353363         0.460797        -0.284573
 C         4.423939        -0.256839        -1.152746
 O         3.679477        -1.528510        -0.864535
 C         2.880750        -0.876378         0.221141
 C         3.159826         1.429353         0.801568
 O         1.804810         1.070654         1.219878
 H        -0.557004        -0.883915        -0.355942
 H         0.219718        -2.021584         0.733693
 H        -0.476753        -0.417258         1.419236
 H         1.797774         0.034603        -2.009761
 H         1.597985         1.614234        -1.241785
 H         4.477658        -0.054131        -2.226469
 H         5.525727        -0.273174        -0.797433
 H         2.956065        -1.307053         1.196335
 H         3.881380         1.399360         1.576022
 H         3.233156         2.510171         0.490003
