19
Iteration:  1791charge 0 multiplicity 1
 C         0.181445        -0.877712         0.599308
 C         1.436389        -0.189806         0.206470
 C         1.941004         0.474487        -1.147600
 C         3.348795         0.540145        -0.425281
 C         4.458591        -0.333330        -1.028278
 O         3.725533        -1.634484        -0.634449
 C         2.868471        -0.789064         0.305024
 C         3.006572         1.611236         0.589589
 O         1.760471         1.090181         1.085968
 H        -0.549960        -0.138165         0.840037
 H        -0.159298        -1.424420        -0.293568
 H         0.271846        -1.588881         1.433757
 H         1.730607        -0.247359        -1.975961
 H         1.514615         1.488695        -1.415926
 H         4.619068        -0.397586        -2.137264
 H         5.393336        -0.312174        -0.384112
 H         3.111055        -1.094380         1.392555
 H         3.643089         1.642795         1.447163
 H         2.913342         2.730478         0.242974
