19
Iteration:  2405
 C         0.209677        -0.694858         0.542531
 C         1.491417        -0.106783         0.209831
 C         1.975588         0.796868        -0.930034
 C         3.299349         0.504294        -0.320441
 C         4.358966        -0.259746        -1.209708
 O         3.591293        -1.619483        -1.066332
 C         2.898816        -0.940366         0.128085
 C         3.091636         1.437930         0.877761
 O         1.814515         0.779805         1.362988
 H        -0.505569        -0.811297        -0.342925
 H         0.473317        -1.845478         0.786828
 H        -0.395285        -0.361816         1.450444
 H         1.950308         0.466165        -1.970397
 H         1.726824         1.795501        -0.932734
 H         4.300891         0.021021        -2.322423
 H         5.435486        -0.305768        -0.821572
 H         3.148902        -1.366427         1.062697
 H         3.650361         1.705387         1.835794
 H         2.972316         2.458992         0.493317
