19
Iteration:  3739charge 0 multiplicity 1
 C         0.033765        -0.691839         0.527986
 C         1.437586        -0.112939         0.315965
 C         1.945616         1.079781        -0.647474
 C         3.382676         0.525189        -0.247511
 C         4.270638         0.076135        -1.365852
 O         3.398558        -1.107024        -1.593173
 C         2.746105        -0.884446        -0.178443
 C         3.518229         0.759691         1.214384
 O         1.995981         0.308148         1.578621
 H        -0.328699        -0.974842        -0.432851
 H         0.018152        -1.638510         1.185835
 H        -0.657811        -0.016616         1.065328
 H         1.821989         0.925583        -1.683552
 H         1.586104         2.019363        -0.213838
 H         4.207576         0.699792        -2.297693
 H         5.314016        -0.230032        -1.076945
 H         3.092377        -1.728796         0.423087
 H         4.272374         0.085586         1.837687
 H         3.501123         1.797495         1.546464
