19
Iteration:  3998charge 0 multiplicity 1
 C         0.138318        -0.635784         0.484760
 C         1.546697        -0.197696         0.213183
 C         1.936386         1.037339        -0.663908
 C         3.335277         0.535633        -0.226431
 C         4.247311         0.051797        -1.317685
 O         3.246084        -1.090188        -1.587806
 C         2.853283        -0.883798        -0.191419
 C         3.334330         0.809902         1.293356
 O         2.080624         0.280802         1.596424
 H        -0.448924        -0.654549        -0.570829
 H        -0.012902        -1.566754         1.099915
 H        -0.174657         0.261867         1.076754
 H         1.723223         0.717101        -1.583528
 H         1.657462         1.941966        -0.369915
 H         4.357551         0.605173        -2.287381
 H         5.243014        -0.441766        -1.056067
 H         3.396977        -1.514814         0.497407
 H         4.168501         0.314954         1.743636
 H         3.314612         1.849955         1.759879
