19
Iteration:  1893charge 0 multiplicity 1
 C         0.234508        -0.685256         0.528927
 C         1.504462        -0.160807         0.172729
 C         1.822467         0.325848        -1.208522
 C         3.275392         0.555843        -0.467777
 C         4.414947        -0.331664        -1.022595
 O         3.673085        -1.550574        -0.713133
 C         2.939856        -0.732253         0.296440
 C         3.125552         1.519827         0.759694
 O         1.757395         0.966503         1.214666
 H         0.064094        -1.656876        -0.071232
 H         0.096866        -0.860925         1.603159
 H        -0.520187        -0.012986         0.107326
 H         1.895962        -0.492477        -1.934750
 H         1.148890         1.059492        -1.643416
 H         4.511050        -0.253260        -2.155259
 H         5.423279        -0.229084        -0.530222
 H         3.179035        -0.929481         1.346693
 H         3.857080         1.388528         1.605350
 H         2.808340         2.614985         0.508789
