19
Iteration:  4697charge 0 multiplicity 1
 C         0.174976        -0.723773         0.397212
 C         1.573095        -0.198725         0.258976
 C         1.999274         1.026238        -0.634775
 C         3.411926         0.533919        -0.118033
 C         4.235876        -0.030647        -1.394404
 O         3.127744        -1.007108        -1.646074
 C         2.795488        -0.984941        -0.229105
 C         3.425419         0.897403         1.341710
 O         2.029710         0.387383         1.662811
 H        -0.109509        -1.409496        -0.433535
 H         0.059738        -1.361111         1.299096
 H        -0.551809         0.030087         0.560537
 H         1.854596         0.907869        -1.688004
 H         1.521469         2.061503        -0.349334
 H         4.400368         0.523724        -2.314751
 H         5.164011        -0.458734        -0.897830
 H         3.131007        -1.730447         0.339593
 H         4.254555         0.363784         1.802906
 H         3.512475         1.933823         1.508093
