19
Iteration:  2184
 C         0.177590        -0.760539         0.478191
 C         1.512667        -0.119989         0.285293
 C         1.825354         0.617028        -0.987265
 C         3.300995         0.419019        -0.315671
 C         4.425238        -0.182904        -1.054168
 O         3.625464        -1.465217        -0.984295
 C         2.823811        -0.953570         0.221691
 C         3.144290         1.432823         0.784273
 O         1.893646         0.902652         1.207991
 H         0.229075        -1.937931         0.589634
 H        -0.414550        -0.266145         1.245324
 H        -0.456831        -0.670244        -0.448295
 H         1.640434         0.031329        -1.823854
 H         1.362146         1.593208        -0.989431
 H         4.481236         0.133465        -2.104216
 H         5.395854        -0.387709        -0.518268
 H         3.051220        -1.282130         1.184511
 H         3.922819         1.178882         1.586745
 H         3.124011         2.366537         0.312767
