19
Iteration:  4495charge 0 multiplicity 1
 C         0.071266        -0.613682         0.462740
 C         1.499801        -0.160332         0.245613
 C         1.981103         1.065018        -0.487468
 C         3.409190         0.498180        -0.192435
 C         4.213776         0.040687        -1.481559
 O         3.348411        -1.139213        -1.623641
 C         2.815684        -0.952546        -0.185574
 C         3.407474         0.868143         1.260695
 O         2.033586         0.276600         1.604318
 H        -0.126726        -1.356339        -0.231014
 H        -0.006042        -0.994392         1.463038
 H        -0.586496         0.268896         0.449862
 H         1.656599         1.066968        -1.724162
 H         1.516133         2.015929        -0.083932
 H         4.093216         0.797831        -2.298123
 H         5.286434        -0.190566        -1.250621
 H         3.032655        -1.745010         0.435824
 H         4.109349         0.310273         1.912325
 H         3.292368         1.849894         1.720828
