19
Iteration:  3734
 C         0.020754        -0.698987         0.539798
 C         1.447652        -0.135968         0.318235
 C         1.963377         1.082438        -0.616715
 C         3.354963         0.483079        -0.236764
 C         4.277832         0.061700        -1.371104
 O         3.414881        -1.105066        -1.581760
 C         2.763987        -0.857686        -0.211248
 C         3.463435         0.773781         1.194012
 O         2.023133         0.303220         1.601561
 H        -0.421281        -0.818544        -0.502756
 H        -0.054530        -1.658751         1.011939
 H        -0.529356         0.038855         1.148815
 H         1.777684         0.997506        -1.809029
 H         1.716638         2.087970        -0.217349
 H         4.215512         0.666956        -2.266219
 H         5.306260        -0.193686        -1.163843
 H         3.025125        -1.693568         0.476200
 H         4.163367         0.218029         1.711225
 H         3.445498         1.856377         1.453100
