19
Iteration:  3561
 C        -0.009347        -0.610202         0.507287
 C         1.519295        -0.164229         0.286097
 C         1.932872         0.915201        -0.639022
 C         3.393522         0.454815        -0.183973
 C         4.281614         0.086939        -1.412722
 O         3.378650        -1.142810        -1.562622
 C         2.827370        -0.947565        -0.166304
 C         3.360656         0.977179         1.299290
 O         2.067238         0.341887         1.541155
 H        -0.139814        -1.112417         1.472077
 H        -0.681870         0.292863         0.216987
 H        -0.300427        -1.431979        -0.138892
 H         1.713880         0.683142        -1.745076
 H         1.509426         1.844338        -0.492104
 H         4.272433         0.704562        -2.387353
 H         5.305909        -0.265465        -1.195362
 H         3.150164        -1.768931         0.508017
 H         4.155469         0.476001         1.927095
 H         3.368156         2.019316         1.444752
