19
Iteration:   460
 C         0.148218        -0.853367         0.677645
 C         1.493052        -0.262793         0.158856
 C         2.115093        -0.498743        -1.226194
 C         3.266475         0.345955        -0.546451
 C         4.652680        -0.411296        -0.507900
 O         3.946276        -1.336562         0.470056
 C         2.908632        -0.216933         0.757087
 C         2.693990         1.758117        -0.447074
 O         1.482557         1.298000         0.236048
 H        -0.367141        -1.411356        -0.104624
 H         0.300471        -1.635602         1.344340
 H        -0.521765        -0.129319         1.092180
 H         2.383175        -1.527515        -1.431627
 H         1.650216        -0.097207        -2.117997
 H         5.030799        -0.798711        -1.431716
 H         5.396328         0.065161         0.091778
 H         3.213190         0.289818         1.632088
 H         3.304941         2.361548         0.126094
 H         2.565588         2.366337        -1.312386
