19
Iteration:  2106charge 0 multiplicity 1
 C         0.098215        -0.878848         0.534373
 C         1.450525        -0.159370         0.151504
 C         1.900290         0.613564        -1.024387
 C         3.350467         0.456468        -0.292607
 C         4.405688        -0.251836        -1.144531
 O         3.674189        -1.534782        -0.864297
 C         2.887442        -0.875780         0.224678
 C         3.145571         1.429245         0.795525
 O         1.800809         1.070147         1.224865
 H        -0.572028        -0.875366        -0.390636
 H         0.237193        -1.980714         0.809125
 H        -0.420904        -0.368371         1.397211
 H         1.870072         0.062666        -2.012956
 H         1.594046         1.561720        -1.278044
 H         4.419051        -0.070568        -2.200850
 H         5.485541        -0.293596        -0.827545
 H         2.978725        -1.279162         1.178650
 H         3.930176         1.375867         1.632616
 H         3.177108         2.483464         0.554132
