19
Iteration:  2542charge 0 multiplicity 1
 C         0.024897        -0.770597         0.510171
 C         1.486630        -0.187506         0.311003
 C         1.923244         0.622988        -0.998097
 C         3.301006         0.615121        -0.427701
 C         4.352387        -0.224514        -1.226525
 O         3.522092        -1.419113        -1.082020
 C         2.952336        -0.807459         0.140137
 C         3.298964         1.247063         1.014052
 O         1.860968         0.860371         1.328074
 H         0.178536        -1.807080         0.799342
 H        -0.495093        -0.314880         1.213952
 H        -0.463776        -0.780237        -0.405892
 H         1.936567         0.072938        -1.929551
 H         1.262276         1.574412        -1.072315
 H         4.723080         0.179189        -2.152125
 H         5.185209        -0.536959        -0.543875
 H         3.333829        -1.294983         0.980786
 H         3.940912         0.789963         1.713049
 H         3.350091         2.301141         1.140798
