19
Iteration:  3301
 C         0.156803        -0.680699         0.440534
 C         1.553135        -0.071330         0.280942
 C         1.907588         0.933176        -0.769191
 C         3.340155         0.680683        -0.348002
 C         4.255362        -0.121675        -1.357659
 O         3.370738        -1.332990        -1.352436
 C         2.836547        -0.828960        -0.056957
 C         3.336945         1.021011         1.205603
 O         1.979043         0.399144         1.538043
 H        -0.325905        -0.386231         1.339059
 H        -0.563745        -0.637793        -0.292469
 H         0.395351        -1.712555         0.533455
 H         1.738441         0.463840        -1.908840
 H         1.464854         1.964254        -0.737728
 H         4.268721         0.405651        -2.348629
 H         5.239085        -0.269615        -0.802411
 H         3.288544        -1.385630         0.764905
 H         4.128846         0.522977         1.663726
 H         3.284765         1.964108         1.631912
