19
Iteration:  3978
 C         0.115148        -0.662518         0.464305
 C         1.518850        -0.101518         0.283755
 C         1.932027         1.081420        -0.647555
 C         3.422734         0.555099        -0.186887
 C         4.184762         0.049280        -1.442120
 O         3.344678        -1.128380        -1.490911
 C         2.781748        -0.912795        -0.195326
 C         3.462851         0.825140         1.282480
 O         1.997286         0.275898         1.565747
 H        -0.370659        -0.696897        -0.585560
 H         0.369913        -1.728143         0.684998
 H        -0.503117        -0.273497         1.265146
 H         1.850659         0.869579        -1.768680
 H         1.634128         2.022566        -0.272722
 H         4.078542         0.657376        -2.415367
 H         5.208810        -0.281993        -1.339583
 H         2.826060        -1.814417         0.543568
 H         4.079034         0.197636         1.873027
 H         3.493325         1.854228         1.669585
