19
Iteration:   866
 C         0.223168        -0.865345         0.668408
 C         1.505843        -0.177097         0.118054
 C         2.041114        -0.052666        -1.361344
 C         3.306023         0.447729        -0.525806
 C         4.538125        -0.479465        -0.582766
 O         3.916944        -1.569224         0.154528
 C         2.879369        -0.499546         0.620998
 C         2.760468         1.785934        -0.078865
 O         1.556093         1.235967         0.525800
 H         0.620165        -1.693479         1.308921
 H        -0.238598        -0.060884         1.368909
 H        -0.525972        -1.226003        -0.055796
 H         1.913729        -0.989521        -1.860550
 H         1.480716         0.710573        -2.070810
 H         4.696047        -0.787396        -1.609994
 H         5.443182        -0.047230        -0.080412
 H         3.138519        -0.266566         1.647637
 H         3.415607         2.441537         0.670599
 H         2.597092         2.521715        -0.934354
