19
Iteration:  3243
 C         0.115309        -0.618606         0.555575
 C         1.556113        -0.196635         0.317641
 C         1.928699         0.771225        -0.834302
 C         3.392327         0.476561        -0.245634
 C         4.330540        -0.072762        -1.303861
 O         3.362647        -1.139778        -1.464650
 C         2.868981        -0.948999        -0.094271
 C         3.288126         1.028885         1.179721
 O         1.929850         0.555378         1.540064
 H        -0.226315        -0.530686         1.578128
 H        -0.546448         0.000910        -0.167460
 H        -0.005753        -1.641100         0.328672
 H         1.843780         0.301062        -1.868037
 H         1.458357         1.794819        -0.807765
 H         4.410186         0.490422        -2.288702
 H         5.409275        -0.320476        -1.089782
 H         3.350846        -1.658959         0.595252
 H         3.928263         0.685833         1.960271
 H         3.091208         2.129409         1.211397
