19
Iteration:   708charge 0 multiplicity 1
 C         0.279775        -0.845681         0.704807
 C         1.536998        -0.285830         0.147392
 C         2.066152        -0.139488        -1.319445
 C         3.369610         0.442375        -0.432992
 C         4.613988        -0.524945        -0.590133
 O         3.862758        -1.464296         0.274785
 C         2.918807        -0.474520         0.708358
 C         2.678179         1.789760        -0.206672
 O         1.437386         1.307791         0.329292
 H         0.365387        -1.540505         1.539921
 H        -0.246813         0.013058         1.130785
 H        -0.289998        -1.330028        -0.111830
 H         2.267392        -1.082446        -1.770489
 H         1.588730         0.486170        -1.995536
 H         4.744994        -0.860422        -1.626038
 H         5.528911        -0.275196        -0.130041
 H         3.225182        -0.064363         1.683710
 H         3.056822         2.622518         0.285063
 H         2.549052         2.186188        -1.229854
