19
Iteration:  3885
 C         0.126140        -0.658721         0.590641
 C         1.501834        -0.159926         0.329438
 C         1.988601         1.039917        -0.625982
 C         3.404747         0.467257        -0.196970
 C         4.247770         0.074256        -1.343792
 O         3.363751        -1.085189        -1.630405
 C         2.658601        -0.939845        -0.245917
 C         3.364141         0.885446         1.253873
 O         2.068123         0.265244         1.515591
 H        -0.268315        -1.476451        -0.174388
 H        -0.134752        -1.082035         1.627991
 H        -0.600627         0.163312         0.214958
 H         1.827027         0.932220        -1.649174
 H         1.819191         2.044798        -0.200236
 H         4.320099         0.837693        -2.117551
 H         5.343183        -0.217579        -1.027227
 H         2.832529        -1.874115         0.223236
 H         4.250445         0.477795         1.890460
 H         3.355576         1.982476         1.462094
