19
Iteration:   148charge 0 multiplicity 1
 C         0.277048        -0.767290         0.715054
 C         1.554859        -0.267221         0.148712
 C         2.174528        -0.681558        -1.251167
 C         3.272741         0.268650        -0.673264
 C         4.601244        -0.417439        -0.266433
 O         3.976182        -1.143409         0.725970
 C         2.946799        -0.114792         0.772577
 C         2.569529         1.655927        -0.638239
 O         1.372449         1.222459         0.035853
 H         0.296725        -1.345413         1.678876
 H        -0.369663         0.082888         0.846919
 H        -0.247377        -1.344732        -0.044134
 H         2.433258        -1.717261        -1.499513
 H         1.648060        -0.218163        -2.135921
 H         5.058138        -1.105316        -1.004970
 H         5.365474         0.247460         0.156105
 H         3.045315         0.627578         1.661618
 H         3.222811         2.553191        -0.211365
 H         2.362802         2.036468        -1.744123
