19
Iteration:  3046
 C         0.100151        -0.752084         0.431261
 C         1.521363        -0.136484         0.361142
 C         1.944059         0.851135        -0.812991
 C         3.412565         0.493858        -0.242944
 C         4.251649        -0.179362        -1.375439
 O         3.429040        -1.267533        -1.355728
 C         2.867490        -0.949355         0.058081
 C         3.312153         1.201041         1.109725
 O         1.906865         0.640788         1.499380
 H        -0.378522        -0.567045        -0.447901
 H         0.249774        -1.832732         0.417083
 H        -0.412523        -0.567118         1.279879
 H         1.782366         0.476727        -1.956958
 H         1.655730         1.990493        -0.619016
 H         4.193485         0.440903        -2.293670
 H         5.289979        -0.498521        -1.158934
 H         3.242040        -1.744785         0.723648
 H         3.929047         0.865423         1.936683
 H         3.315048         2.298549         1.036574
