19
Iteration:  4518
 C         0.126915        -0.741157         0.459396
 C         1.500518        -0.085337         0.238563
 C         1.986788         1.099556        -0.642205
 C         3.368279         0.528680        -0.193107
 C         4.165451         0.061846        -1.396621
 O         3.273126        -1.111826        -1.499308
 C         2.789925        -0.861358        -0.188892
 C         3.444837         0.701209         1.270130
 O         2.075359         0.323414         1.563754
 H        -0.102692        -1.160785        -0.484002
 H         0.127930        -1.452029         1.245676
 H        -0.499817         0.106284         0.795750
 H         1.626733         1.011976        -1.850122
 H         1.682524         2.175955        -0.377016
 H         4.151371         0.706204        -2.291727
 H         5.175900        -0.220343        -1.056692
 H         3.109129        -1.603958         0.467476
 H         4.169257         0.059142         1.841597
 H         3.544746         1.724051         1.664114
