19
Iteration:  3888charge 0 multiplicity 1
 C         0.109478        -0.659722         0.576422
 C         1.505258        -0.173922         0.304131
 C         1.976598         1.043845        -0.640953
 C         3.411583         0.461379        -0.199604
 C         4.270334         0.064467        -1.330028
 O         3.339916        -1.065010        -1.631596
 C         2.666686        -0.941253        -0.239313
 C         3.386670         0.917045         1.273417
 O         2.083588         0.255812         1.546166
 H        -0.327707        -1.473819        -0.200044
 H        -0.064125        -1.106474         1.557104
 H        -0.623516         0.144759         0.276329
 H         1.769155         0.948533        -1.638061
 H         1.811737         1.997639        -0.347416
 H         4.319519         0.771716        -2.196591
 H         5.290679        -0.294087        -1.116596
 H         2.870506        -1.909470         0.270244
 H         4.097412         0.481124         1.896362
 H         3.319209         2.016418         1.487569
