19
Iteration:  2153charge 0 multiplicity 1
 C         0.112117        -0.798285         0.474630
 C         1.517814        -0.154843         0.227886
 C         1.955088         0.550795        -1.049555
 C         3.339401         0.563699        -0.341692
 C         4.456190        -0.367475        -1.140461
 O         3.543958        -1.466165        -0.938033
 C         2.882825        -0.777650         0.201181
 C         3.081906         1.481487         0.817529
 O         1.838514         0.853749         1.336581
 H        -0.046057        -1.772457        -0.052425
 H        -0.020221        -0.957874         1.524418
 H        -0.662811        -0.082571         0.205217
 H         1.864462        -0.077355        -1.878298
 H         1.435453         1.519360        -1.356956
 H         4.644165        -0.097754        -2.204422
 H         5.396670        -0.481473        -0.666437
 H         3.339310        -1.026955         1.198541
 H         3.900895         1.473746         1.647472
 H         3.039062         2.507438         0.497559
