19
Iteration:  3923
 C         0.169062        -0.686224         0.397060
 C         1.601307        -0.201367         0.345872
 C         1.951602         0.996734        -0.661658
 C         3.397784         0.609083        -0.230884
 C         4.230921        -0.041056        -1.336678
 O         3.147914        -1.028355        -1.589077
 C         2.814829        -0.866131        -0.162302
 C         3.385427         0.896986         1.277849
 O         2.063419         0.260846         1.596991
 H        -0.125492        -0.807914        -0.655229
 H        -0.048670        -1.570669         0.973651
 H        -0.302376         0.125291         0.903615
 H         1.683064         0.646698        -1.740670
 H         1.662426         2.021227        -0.378674
 H         4.454073         0.482634        -2.308179
 H         5.082794        -0.558554        -0.982119
 H         3.302531        -1.655031         0.519461
 H         4.057289         0.353565         1.884782
 H         3.392022         1.922787         1.658691
