19
Iteration:  1182charge 0 multiplicity 1
 C         0.159196        -0.917926         0.586722
 C         1.476496        -0.128738         0.172441
 C         1.956699         0.041973        -1.279037
 C         3.311528         0.487969        -0.555059
 C         4.571809        -0.471683        -0.744089
 O         3.751764        -1.537193        -0.203147
 C         2.974052        -0.583517         0.590163
 C         2.959148         1.724057         0.260699
 O         1.553401         1.261570         0.726180
 H        -0.612905        -1.041702        -0.196408
 H         0.517125        -1.904375         0.961620
 H        -0.199454        -0.310294         1.466589
 H         2.216178        -0.977544        -1.803752
 H         1.467113         0.731177        -1.938134
 H         4.805886        -0.642155        -1.838396
 H         5.518833        -0.011601        -0.207448
 H         3.204383        -0.665292         1.731917
 H         3.675829         1.931353         1.038834
 H         2.767377         2.666621        -0.397275
