19
Iteration:  2016charge 0 multiplicity 1
 C         0.149957        -0.805864         0.544441
 C         1.467755        -0.117420         0.267254
 C         1.917593         0.512745        -1.096721
 C         3.275260         0.455705        -0.341190
 C         4.407173        -0.242510        -1.125964
 O         3.725244        -1.593018        -0.830476
 C         2.904160        -0.900001         0.326168
 C         3.121279         1.488377         0.735377
 O         1.721330         1.052488         1.177957
 H        -0.391108        -0.309243         1.354592
 H        -0.439835        -0.727101        -0.448885
 H         0.172061        -1.948161         0.663342
 H         1.846060         0.029253        -2.048223
 H         1.598825         1.555516        -1.228840
 H         4.418152        -0.028770        -2.195407
 H         5.493821        -0.148194        -0.834227
 H         3.274800        -1.302823         1.239328
 H         3.982750         1.457167         1.449437
 H         3.135291         2.556784         0.346013
