19
Iteration:  2254
 C         0.060124        -0.823497         0.464885
 C         1.465520        -0.222279         0.243912
 C         1.928643         0.678636        -0.963862
 C         3.343242         0.488832        -0.307446
 C         4.352988        -0.208434        -1.107123
 O         3.573639        -1.513043        -1.011088
 C         2.856705        -0.930697         0.203518
 C         3.228571         1.468244         0.840094
 O         1.915614         0.933653         1.270799
 H        -0.317730        -0.781328         1.413509
 H        -0.668368        -0.495835        -0.310683
 H         0.184698        -1.881978         0.319519
 H         1.717357         0.180621        -1.996108
 H         1.651905         1.763955        -0.908015
 H         4.404934         0.123558        -2.167461
 H         5.267378        -0.133072        -0.604919
 H         3.343524        -1.518713         1.027357
 H         3.962131         1.318554         1.609596
 H         2.955524         2.463252         0.537633
