19
Iteration:  2377
 C         0.089009        -0.701907         0.467394
 C         1.496571        -0.221462         0.178104
 C         1.876301         0.541336        -0.996728
 C         3.295850         0.624326        -0.400210
 C         4.430198        -0.250272        -1.175454
 O         3.465061        -1.335100        -0.995010
 C         2.906534        -0.822127         0.221106
 C         3.205552         1.317962         0.902907
 O         1.965837         0.748306         1.374933
 H        -0.530148        -0.339580        -0.282459
 H        -0.034442        -1.722075         0.509895
 H        -0.288716        -0.298732         1.373346
 H         2.048380        -0.228068        -1.828224
 H         1.348057         1.503103        -1.373573
 H         4.584234        -0.159895        -2.229562
 H         5.375255        -0.347229        -0.694907
 H         3.124581        -1.327181         1.233508
 H         3.983893         1.221166         1.667456
 H         3.051269         2.413524         0.744225
