19
Iteration:  1051
 C         0.177168        -0.850939         0.639452
 C         1.540361        -0.211499         0.152141
 C         2.063721         0.001842        -1.292767
 C         3.369640         0.522059        -0.593826
 C         4.577839        -0.535937        -0.768174
 O         3.776161        -1.506941        -0.041369
 C         2.891975        -0.511125         0.594184
 C         2.780777         1.763524         0.169635
 O         1.596687         1.160204         0.689805
 H         0.259305        -1.788107         1.274353
 H        -0.376402        -0.035389         1.213896
 H        -0.398287        -1.107569        -0.267530
 H         2.286602        -0.850024        -1.938439
 H         1.403198         0.718545        -1.873318
 H         4.744439        -0.962384        -1.747773
 H         5.432709        -0.130940        -0.203150
 H         3.067714        -0.132512         1.639191
 H         3.351607         2.282106         0.858109
 H         2.603865         2.603954        -0.565015
