19
Iteration:   378
 C         0.279222        -0.776253         0.685507
 C         1.515045        -0.174087         0.179450
 C         2.123798        -0.602174        -1.184500
 C         3.284210         0.347891        -0.578584
 C         4.554784        -0.356070        -0.425695
 O         3.954849        -1.329428         0.475501
 C         2.954685        -0.255020         0.792316
 C         2.658457         1.715061        -0.414158
 O         1.363809         1.271398         0.042683
 H        -0.089897        -0.258161         1.604324
 H        -0.478011        -0.797212        -0.143642
 H         0.564917        -1.852460         0.855531
 H         2.356525        -1.694769        -1.190853
 H         1.522762        -0.227761        -2.039537
 H         5.068933        -0.830859        -1.331224
 H         5.367496         0.189847         0.139137
 H         3.342987         0.282271         1.725886
 H         3.224784         2.347665         0.433126
 H         2.727175         2.175941        -1.426281
