19
Iteration:  3261charge 0 multiplicity 1
 C         0.104525        -0.640406         0.526016
 C         1.478014        -0.191070         0.232633
 C         1.963885         0.829429        -0.730728
 C         3.362074         0.454388        -0.187177
 C         4.255412         0.048141        -1.283929
 O         3.430205        -1.274519        -1.506303
 C         2.819668        -1.039046        -0.082217
 C         3.289315         1.175415         1.129226
 O         2.019897         0.527771         1.503564
 H        -0.038196        -0.320504         1.603541
 H        -0.570656        -0.130008        -0.205711
 H        -0.095799        -1.813336         0.409415
 H         1.780917         0.510106        -1.677420
 H         1.638839         1.828551        -0.485856
 H         4.490164         0.654794        -2.114933
 H         5.134734        -0.419310        -0.894717
 H         3.057162        -1.872472         0.611111
 H         4.077121         0.663713         1.841289
 H         3.206444         2.377055         1.260795
