19
Iteration:  4995charge 0 multiplicity 1
 C         0.138713        -0.752699         0.423031
 C         1.536941        -0.161824         0.232134
 C         2.009058         1.052026        -0.607569
 C         3.472423         0.494241        -0.217864
 C         4.236215        -0.057316        -1.474147
 O         3.159443        -1.045685        -1.571359
 C         2.834187        -0.875149        -0.172089
 C         3.355171         0.929135         1.367878
 O         2.050703         0.358021         1.661281
 H        -0.228284        -0.974569        -0.562438
 H         0.129166        -1.709433         1.030493
 H        -0.577871        -0.056278         0.734378
 H         1.798134         0.933249        -1.798650
 H         1.706935         2.074931        -0.198893
 H         4.262798         0.507331        -2.420559
 H         5.119828        -0.643557        -1.314915
 H         3.113007        -1.936874         0.402287
 H         4.051441         0.388459         2.071324
 H         3.422689         2.058040         1.558653
