19
Iteration:   422
 C         0.302484        -0.858824         0.735299
 C         1.492238        -0.199588         0.121816
 C         2.126549        -0.400731        -1.302657
 C         3.303904         0.361727        -0.548243
 C         4.593896        -0.473445        -0.470050
 O         3.940907        -1.352520         0.573972
 C         2.913140        -0.258450         0.791448
 C         2.642038         1.719678        -0.496910
 O         1.397458         1.265079         0.153354
 H        -0.555436        -0.216810         0.427664
 H         0.218817        -1.933183         0.342170
 H         0.485015        -0.938115         1.840960
 H         2.460036        -1.425921        -1.578799
 H         1.696376         0.213955        -2.113775
 H         4.905502        -1.149438        -1.353304
 H         5.516859         0.085416        -0.111722
 H         3.010749         0.415349         1.713434
 H         3.213502         2.531393         0.218047
 H         2.295172         2.325695        -1.413173
