19
Iteration:   667
 C         0.213449        -0.788053         0.589018
 C         1.526038        -0.217285         0.171377
 C         2.005747        -0.437322        -1.217399
 C         3.261835         0.354773        -0.569619
 C         4.596448        -0.326255        -0.595847
 O         3.880626        -1.400094         0.299861
 C         2.979292        -0.369981         0.670149
 C         2.779382         1.695421        -0.160088
 O         1.487808         1.313804         0.363752
 H        -0.024078        -1.675809        -0.031666
 H         0.259024        -1.009091         1.619828
 H        -0.589618        -0.016032         0.477553
 H         2.355767        -1.455214        -1.526652
 H         1.556154        -0.024901        -2.088060
 H         4.976902        -0.860129        -1.482505
 H         5.378355         0.180332         0.033454
 H         3.034284        -0.045625         1.695541
 H         3.432473         2.220069         0.576108
 H         2.533708         2.327066        -0.968673
