19
Iteration:  2201charge 0 multiplicity 1
 C         0.101988        -0.754652         0.531703
 C         1.474207        -0.212212         0.171522
 C         1.928078         0.563129        -1.052167
 C         3.340883         0.581489        -0.362710
 C         4.400370        -0.279538        -1.165313
 O         3.579425        -1.464153        -0.936250
 C         2.908182        -0.820086         0.210971
 C         3.181888         1.391630         0.871374
 O         1.802450         0.863395         1.305741
 H         0.165581        -1.627771         1.109514
 H        -0.415483         0.049954         1.101537
 H        -0.501709        -0.977664        -0.351627
 H         1.963279         0.036881        -2.094807
 H         1.504931         1.566886        -1.240937
 H         4.598114         0.004345        -2.205655
 H         5.331049        -0.278731        -0.577709
 H         3.452490        -1.367251         1.069077
 H         3.905022         1.215605         1.636761
 H         3.013259         2.530064         0.740726
