19
Iteration:  4438charge 0 multiplicity 1
 C         0.105579        -0.628843         0.514963
 C         1.535105        -0.162937         0.290862
 C         1.918996         1.007630        -0.617301
 C         3.364623         0.537654        -0.216266
 C         4.278620        -0.034904        -1.368660
 O         3.280495        -1.012992        -1.575029
 C         2.749107        -0.922693        -0.254727
 C         3.404561         0.840277         1.276235
 O         2.089143         0.277170         1.589049
 H        -0.120620        -1.187386        -0.367206
 H         0.048626        -1.251226         1.423218
 H        -0.533181         0.196351         0.479915
 H         1.663300         0.840376        -1.960110
 H         1.521041         1.997860        -0.284033
 H         4.437838         0.632511        -2.271013
 H         5.294792        -0.379211        -0.989710
 H         3.168940        -1.631964         0.357558
 H         4.147897         0.201609         1.768365
 H         3.331969         1.894186         1.670924
