19
Iteration:  4906charge 0 multiplicity 1
 C         0.130692        -0.536203         0.455069
 C         1.558534        -0.189371         0.224971
 C         1.936473         0.911785        -0.613042
 C         3.397851         0.518448        -0.208321
 C         4.244544         0.011401        -1.417379
 O         3.285100        -1.056265        -1.604744
 C         2.836102        -0.939132        -0.185201
 C         3.296342         0.884748         1.288460
 O         2.074390         0.251791         1.654421
 H        -0.395819        -0.786545        -0.454635
 H         0.058187        -1.326455         1.202939
 H        -0.206898         0.306669         0.983446
 H         1.596181         0.796887        -1.798875
 H         1.592806         1.941586        -0.289543
 H         4.305147         0.799663        -2.202950
 H         5.195056        -0.239840        -0.961577
 H         3.078796        -1.901153         0.468323
 H         4.131002         0.506149         1.926438
 H         3.243548         2.002129         1.348147
