19
Iteration:  4059charge 0 multiplicity 1
 C         0.140856        -0.689934         0.493452
 C         1.490490        -0.159042         0.223621
 C         2.045855         1.035136        -0.600390
 C         3.389508         0.584315        -0.164646
 C         4.182614         0.005008        -1.413128
 O         3.276540        -1.035390        -1.601521
 C         2.805522        -0.905609        -0.211399
 C         3.440866         0.833983         1.317762
 O         1.997009         0.256942         1.561008
 H        -0.081576        -1.485253        -0.099548
 H         0.089751        -1.028045         1.490869
 H        -0.670165         0.000375         0.342648
 H         1.813339         0.999018        -1.731813
 H         1.593937         2.127379        -0.321481
 H         4.305267         0.511255        -2.345173
 H         5.122783        -0.350029        -1.041782
 H         3.027612        -1.686444         0.614319
 H         4.265152         0.267863         1.829035
 H         3.361978         1.827222         1.716146
