19
Iteration:  4457charge 0 multiplicity 1
 C         0.061716        -0.577079         0.467433
 C         1.509678        -0.148811         0.237096
 C         1.935452         0.925787        -0.689420
 C         3.405261         0.545596        -0.171885
 C         4.247652         0.101547        -1.292908
 O         3.177804        -1.044920        -1.648956
 C         2.832071        -0.901859        -0.126089
 C         3.418459         0.871179         1.270901
 O         2.137703         0.161835         1.622190
 H        -0.424218        -1.322470        -0.270423
 H        -0.110015        -0.923002         1.506541
 H        -0.562510         0.287173         0.275309
 H         1.834938         0.505408        -1.581724
 H         1.601372         1.906335        -0.547284
 H         4.511641         0.770747        -2.142249
 H         5.197887        -0.423446        -0.946310
 H         3.362276        -1.783499         0.336324
 H         4.369485         0.501074         1.611144
 H         3.399113         1.985363         1.399592
