19
Iteration:  3875charge 0 multiplicity 1
 C         0.108023        -0.641010         0.584291
 C         1.474474        -0.090193         0.264204
 C         1.990763         1.040868        -0.568300
 C         3.333394         0.470132        -0.195732
 C         4.215071         0.101537        -1.355747
 O         3.419550        -1.111380        -1.620881
 C         2.736326        -0.968772        -0.273805
 C         3.375515         0.782321         1.206152
 O         2.043120         0.307345         1.555845
 H         0.122947        -1.661256        -0.063882
 H        -0.062983        -0.769351         1.714326
 H        -0.660423         0.203802         0.351071
 H         1.817221         0.983451        -1.526174
 H         1.730473         1.970662        -0.182143
 H         4.239666         0.835847        -2.168857
 H         5.266500        -0.205098        -0.996293
 H         3.009324        -1.806689         0.346450
 H         4.152674         0.254824         1.811642
 H         3.334476         1.890233         1.368182
