19
Iteration:  4092
 C         0.166229        -0.717124         0.353761
 C         1.557814        -0.129152         0.291478
 C         1.933369         1.040803        -0.624906
 C         3.355383         0.535533        -0.184905
 C         4.159180         0.055117        -1.420867
 O         3.260092        -1.109793        -1.579477
 C         2.753713        -0.904830        -0.156718
 C         3.496607         0.779996         1.311694
 O         2.024756         0.371875         1.652851
 H         0.188866        -1.278738        -0.498172
 H         0.024511        -1.392914         1.152614
 H        -0.584498         0.050567         0.364232
 H         1.735046         0.946292        -1.749033
 H         1.694166         2.146173        -0.214110
 H         4.189905         0.659504        -2.304277
 H         5.161353        -0.229088        -1.159198
 H         3.152247        -1.760746         0.600661
 H         4.311997         0.125398         1.724591
 H         3.649973         1.792060         1.630617
