19
Iteration:  4294
 C         0.115061        -0.665022         0.550070
 C         1.458653        -0.104971         0.225291
 C         1.905377         1.065338        -0.661066
 C         3.427609         0.543810        -0.176604
 C         4.249183        -0.018567        -1.379796
 O         3.331818        -1.048074        -1.576953
 C         2.837892        -0.824412        -0.210928
 C         3.383002         0.706318         1.277498
 O         2.016835         0.309590         1.573902
 H        -0.168584        -1.290572        -0.310591
 H         0.319795        -1.220325         1.429119
 H        -0.567753         0.093773         0.626589
 H         1.697147         0.799315        -1.849352
 H         1.310368         1.983406        -0.388069
 H         4.287193         0.622017        -2.258731
 H         5.247926        -0.372245        -1.203349
 H         3.330058        -1.766931         0.501168
 H         4.060172         0.042213         1.730427
 H         3.536817         1.674545         1.829312
