19
Iteration:  4162
 C         0.121314        -0.613781         0.593089
 C         1.463597        -0.152148         0.278783
 C         1.918902         1.016674        -0.698104
 C         3.354266         0.515720        -0.218838
 C         4.311286         0.056641        -1.309058
 O         3.329389        -1.100557        -1.601746
 C         2.785262        -0.908932        -0.230303
 C         3.407206         0.823414         1.271557
 O         2.035027         0.275237         1.531530
 H        -0.416174        -0.392584        -0.395338
 H         0.093367        -1.721295         0.718149
 H        -0.251943        -0.148713         1.503097
 H         1.782687         0.830193        -1.776830
 H         1.553854         2.103270        -0.509264
 H         4.473248         0.720647        -2.157340
 H         5.247830        -0.383770        -0.933600
 H         3.141937        -1.626449         0.471030
 H         3.995297         0.213215         1.925106
 H         3.360924         1.930891         1.580954
