19
Iteration:   890charge 0 multiplicity 1
 C         0.205578        -0.796018         0.660400
 C         1.513481        -0.166843         0.133663
 C         2.164169        -0.151437        -1.267674
 C         3.335095         0.466544        -0.554130
 C         4.590183        -0.500915        -0.698674
 O         3.787905        -1.462505         0.084993
 C         2.919012        -0.509981         0.595885
 C         2.742903         1.746102        -0.010714
 O         1.486294         1.232669         0.590307
 H         0.460659        -0.962317         1.718094
 H        -0.709779        -0.165511         0.557739
 H         0.082787        -1.764978         0.214773
 H         2.258027        -1.169341        -1.671672
 H         1.683646         0.467272        -2.105725
 H         4.789100        -0.784245        -1.744010
 H         5.494403        -0.272377        -0.075517
 H         3.117894        -0.258766         1.634191
 H         3.463414         2.258408         0.659992
 H         2.478968         2.472011        -0.724813
