19
Iteration:   689
 C         0.192040        -0.808122         0.694956
 C         1.479087        -0.175214         0.113937
 C         2.191119        -0.256812        -1.241323
 C         3.331727         0.433603        -0.540442
 C         4.582566        -0.474006        -0.606135
 O         3.906644        -1.505222         0.278836
 C         2.955466        -0.408874         0.735561
 C         2.683421         1.825413        -0.290798
 O         1.447768         1.254168         0.393831
 H         0.384676        -1.904357         0.764913
 H        -0.007354        -0.395285         1.650446
 H        -0.690042        -0.747526        -0.002719
 H         2.348627        -1.285953        -1.667244
 H         1.651498         0.260945        -2.010769
 H         4.796691        -0.947177        -1.581628
 H         5.472646        -0.078634        -0.060619
 H         3.022000        -0.204698         1.803154
 H         3.101583         2.378508         0.567605
 H         2.420879         2.502781        -1.041700
