19
Iteration:  4977
 C         0.151581        -0.701817         0.424717
 C         1.528164        -0.109959         0.309928
 C         1.977957         1.019556        -0.611682
 C         3.387150         0.575193        -0.156746
 C         4.201994         0.002634        -1.367511
 O         3.223676        -1.106559        -1.582173
 C         2.796372        -0.892128        -0.146853
 C         3.461434         0.800525         1.247605
 O         2.018790         0.365510         1.510831
 H        -0.375419        -0.887324        -0.535748
 H         0.227700        -1.670904         0.879699
 H        -0.431604        -0.243145         1.285223
 H         1.750253         0.863665        -1.616650
 H         1.712178         2.028357        -0.289314
 H         4.258021         0.600633        -2.276563
 H         5.221686        -0.392458        -0.960938
 H         3.256445        -1.566217         0.477112
 H         4.137895         0.173315         1.760306
 H         3.457776         1.801179         1.573765
