19
Iteration:  1958charge 0 multiplicity 1
 C         0.224465        -0.779561         0.570398
 C         1.466655        -0.076153         0.170067
 C         2.015716         0.531538        -1.118543
 C         3.346603         0.529962        -0.359220
 C         4.411812        -0.369808        -1.076802
 O         3.602262        -1.557511        -0.757609
 C         2.874149        -0.826241         0.276614
 C         2.978840         1.583850         0.698427
 O         1.797944         0.892927         1.184716
 H         0.532439        -1.528855         1.354763
 H        -0.481882        -0.131737         1.051418
 H        -0.151508        -1.361388        -0.235270
 H         2.046936        -0.150895        -1.976610
 H         1.604118         1.550474        -1.368419
 H         4.445329        -0.333270        -2.222011
 H         5.385334        -0.430182        -0.527156
 H         3.273695        -1.222256         1.248248
 H         3.666277         1.863450         1.399499
 H         2.611618         2.434587         0.077388
