19
Iteration:  3855charge 0 multiplicity 1
 C         0.022069        -0.636160         0.532560
 C         1.476659        -0.181382         0.230904
 C         1.837755         1.078491        -0.687091
 C         3.374578         0.557193        -0.206845
 C         4.286106         0.059814        -1.461756
 O         3.367625        -1.120748        -1.573505
 C         2.823202        -0.869242        -0.210249
 C         3.461851         0.731236         1.354517
 O         2.064054         0.294692         1.606460
 H        -0.164197        -1.738247         0.163373
 H        -0.180831        -0.580839         1.599164
 H        -0.681287         0.161038         0.167274
 H         1.635144         0.916442        -1.732248
 H         1.612575         2.006591        -0.292334
 H         4.239999         0.790994        -2.280340
 H         5.289286        -0.129057        -1.156908
 H         3.212497        -1.683139         0.449990
 H         4.170510         0.061073         1.657103
 H         3.728317         1.704114         1.822903
