19
Iteration:  3326charge 0 multiplicity 1
 C         0.179712        -0.796072         0.404393
 C         1.543608        -0.152618         0.255206
 C         1.893477         0.928712        -0.770247
 C         3.363125         0.499753        -0.249902
 C         4.257055        -0.058984        -1.345487
 O         3.298106        -1.216754        -1.363786
 C         2.784053        -0.883512        -0.030283
 C         3.365034         1.029548         1.187820
 O         2.046322         0.570539         1.522092
 H        -0.486049        -0.103637         0.986789
 H        -0.269224        -1.017733        -0.593711
 H         0.139057        -1.878344         0.855779
 H         1.790406         0.614269        -1.843017
 H         1.556656         1.984159        -0.585850
 H         4.290104         0.571597        -2.219219
 H         5.234546        -0.351545        -0.914345
 H         3.116766        -1.596411         0.751093
 H         4.177095         0.462296         1.791393
 H         3.460211         2.032581         1.377380
