19
Iteration:  2845charge 0 multiplicity 1
 C         0.170597        -0.726151         0.558051
 C         1.497107        -0.104089         0.195367
 C         1.990703         0.774695        -1.009624
 C         3.395679         0.624719        -0.295118
 C         4.296576        -0.175587        -1.250186
 O         3.404857        -1.363501        -1.237080
 C         2.875532        -0.854586         0.080692
 C         3.210826         1.179088         1.135318
 O         1.902698         0.589712         1.394724
 H         0.380425        -1.826374         0.619199
 H        -0.094102        -0.395866         1.524426
 H        -0.672435        -0.565484        -0.103554
 H         1.825761         0.292833        -1.935142
 H         1.465280         1.794361        -1.046094
 H         4.285955         0.284668        -2.247750
 H         5.335371        -0.472374        -0.934132
 H         3.417922        -1.331249         0.995531
 H         4.002609         0.880013         1.897371
 H         3.040877         2.279281         1.287853
