19
Iteration:  1593
 C         0.185889        -0.744964         0.606062
 C         1.519254        -0.140682         0.144445
 C         2.011017         0.312793        -1.226861
 C         3.334931         0.534002        -0.534394
 C         4.420009        -0.379952        -0.998547
 O         3.710073        -1.584867        -0.432016
 C         2.974933        -0.720292         0.360717
 C         2.884510         1.633870         0.557746
 O         1.735623         0.978774         1.041358
 H        -0.518707        -0.627853        -0.241896
 H         0.174626        -1.806159         0.846680
 H        -0.245303        -0.094637         1.381471
 H         2.124176        -0.589273        -1.866758
 H         1.512438         1.174377        -1.730326
 H         4.624810        -0.354137        -2.063302
 H         5.343909        -0.314713        -0.457376
 H         3.228755        -0.762651         1.449035
 H         3.582442         1.773142         1.376299
 H         2.236543         2.540823         0.215479
