19
Iteration:  3721charge 0 multiplicity 1
 C         0.072463        -0.616768         0.485286
 C         1.480229        -0.146696         0.249151
 C         1.949252         1.062430        -0.565800
 C         3.347094         0.492045        -0.238316
 C         4.258704         0.058173        -1.395295
 O         3.397443        -1.135474        -1.549800
 C         2.769728        -0.971340        -0.268425
 C         3.300188         0.888649         1.246658
 O         2.122482         0.255033         1.617437
 H        -0.667120        -0.404323        -0.407010
 H         0.077634        -1.772946         0.789878
 H        -0.380120        -0.016432         1.416206
 H         1.590385         0.959461        -1.590613
 H         1.883987         2.114975        -0.206409
 H         4.284303         0.727264        -2.224902
 H         5.254372        -0.294773        -1.087798
 H         3.216195        -1.684084         0.443294
 H         4.075537         0.464291         1.760672
 H         3.372052         1.962501         1.416263
