19
Iteration:  4507charge 0 multiplicity 1
 C         0.097110        -0.663764         0.472628
 C         1.515366        -0.142856         0.260041
 C         1.942969         1.088223        -0.581593
 C         3.376692         0.520105        -0.207263
 C         4.212514         0.103533        -1.400875
 O         3.300748        -1.175964        -1.555666
 C         2.799445        -0.895170        -0.234509
 C         3.439766         0.797063         1.336615
 O         2.026981         0.289572         1.568869
 H        -0.275948        -1.276494        -0.321793
 H         0.085561        -1.270843         1.338864
 H        -0.723300         0.108891         0.506185
 H         1.857229         1.135067        -1.879470
 H         1.872716         2.088596        -0.007002
 H         4.094281         0.691648        -2.326058
 H         5.236178        -0.278843        -1.416381
 H         3.296518        -1.514917         0.460138
 H         4.190543         0.140636         1.848598
 H         3.667086         1.842384         1.400215
