19
Iteration:  3612
 C         0.137433        -0.736234         0.466026
 C         1.519405        -0.109084         0.256799
 C         1.963522         1.004268        -0.656934
 C         3.433221         0.625165        -0.217023
 C         4.265388        -0.061948        -1.340052
 O         3.217451        -1.092148        -1.503698
 C         2.804605        -0.790724        -0.222938
 C         3.373433         0.846369         1.284008
 O         2.031463         0.280570         1.561896
 H        -0.347321        -0.395465         1.425729
 H        -0.400655        -0.583102        -0.363034
 H         0.175954        -1.795513         0.681438
 H         1.803159         0.620958        -1.696535
 H         1.533094         2.134951        -0.728886
 H         4.380996         0.406159        -2.298182
 H         5.265868        -0.486866        -1.103664
 H         3.273815        -1.548608         0.450865
 H         4.236201         0.459940         1.930602
 H         3.282577         2.015521         1.486315
