19
Iteration:   848charge 0 multiplicity 1
 C         0.237346        -0.860122         0.629126
 C         1.462136        -0.228824         0.188577
 C         1.947155        -0.109798        -1.247262
 C         3.293930         0.400365        -0.562686
 C         4.602197        -0.417093        -0.648597
 O         3.868224        -1.472614         0.153316
 C         2.920384        -0.522240         0.660036
 C         2.865430         1.726647        -0.085345
 O         1.520178         1.302832         0.456138
 H         0.351714        -1.930664         0.561334
 H        -0.042993        -0.603678         1.636779
 H        -0.555346        -0.472377        -0.001833
 H         2.226969        -0.976986        -1.860686
 H         1.386038         0.577869        -1.890794
 H         5.070589        -0.920980        -1.527770
 H         5.358747         0.068601         0.012373
 H         3.094984        -0.366028         1.747298
 H         3.382450         2.141147         0.713040
 H         2.723395         2.523930        -0.776321
