19
Iteration:  2971
 C         0.147367        -0.720046         0.548672
 C         1.509053        -0.118679         0.268717
 C         1.856961         0.874861        -0.885171
 C         3.290535         0.525369        -0.302061
 C         4.292214        -0.119737        -1.196409
 O         3.530328        -1.375140        -1.354032
 C         2.866317        -0.964995        -0.036529
 C         3.290020         1.152986         1.090367
 O         1.939991         0.639637         1.465923
 H        -0.445897         0.031044         1.107980
 H        -0.352450        -0.753470        -0.506373
 H         0.104283        -1.656048         1.129694
 H         1.738328         0.436417        -1.931042
 H         1.494625         1.734073        -0.766574
 H         4.471866         0.255433        -2.216420
 H         5.205921        -0.308723        -0.703914
 H         3.162384        -1.453912         0.870888
 H         4.059614         0.779993         1.797079
 H         3.164536         2.319816         1.131724
