19
Iteration:  4847
 C         0.192562        -0.772245         0.418027
 C         1.542879        -0.059439         0.253157
 C         1.916748         1.153589        -0.583445
 C         3.402734         0.594241        -0.171807
 C         4.191864        -0.055204        -1.371949
 O         3.214722        -1.168117        -1.586053
 C         2.799064        -0.865593        -0.259702
 C         3.470701         0.821713         1.342800
 O         2.038374         0.350383         1.567730
 H         0.025647        -1.517420        -0.406524
 H         0.081858        -1.374117         1.331603
 H        -0.865088        -0.266321         0.259939
 H         1.705344         1.126062        -1.529192
 H         1.631879         2.081421        -0.117144
 H         4.245951         0.534614        -2.254725
 H         5.167424        -0.359534        -1.084273
 H         3.173839        -1.775271         0.459733
 H         4.174348         0.140109         1.942528
 H         3.563209         1.868451         1.715799
