19
Iteration:  2176charge 0 multiplicity 1
 C         0.156041        -0.787680         0.452413
 C         1.485964        -0.080772         0.281086
 C         1.833084         0.629229        -0.973276
 C         3.283310         0.483022        -0.306431
 C         4.411067        -0.203585        -1.051993
 O         3.620419        -1.535409        -0.989449
 C         2.839544        -1.000645         0.253321
 C         3.137499         1.435150         0.724025
 O         1.906401         0.920854         1.244698
 H         0.332880        -1.846303         0.434872
 H        -0.359373        -0.544425         1.373291
 H        -0.470089        -0.474257        -0.355649
 H         1.708751         0.081803        -1.882978
 H         1.407777         1.693463        -1.191881
 H         4.676320         0.335500        -2.008769
 H         5.283995        -0.240476        -0.486259
 H         3.383605        -1.639715         1.024869
 H         3.910460         1.446059         1.571345
 H         3.094624         2.500592         0.450830
