19
Iteration:  2831charge 0 multiplicity 1
 C         0.088984        -0.748146         0.551661
 C         1.553425        -0.238081         0.214747
 C         1.967701         0.750574        -0.867802
 C         3.348833         0.579050        -0.320411
 C         4.321374        -0.131436        -1.272243
 O         3.408454        -1.298099        -1.186742
 C         2.906319        -0.882874         0.001517
 C         3.216070         1.215476         1.061522
 O         1.908111         0.667261         1.408022
 H        -0.058844        -1.798511         0.369641
 H        -0.098563        -0.461707         1.622065
 H        -0.681389        -0.257887        -0.063842
 H         2.128035         0.140553        -1.918063
 H         1.676903         1.918214        -1.032116
 H         4.597726         0.111908        -2.350539
 H         5.276102        -0.320448        -0.683956
 H         3.193417        -1.543519         0.853445
 H         3.925647         0.678959         1.652888
 H         3.294489         2.270846         1.140346
