19
Iteration:  2498
 C         0.048766        -0.726347         0.567316
 C         1.482145        -0.186095         0.196906
 C         2.028734         0.732118        -0.967499
 C         3.378465         0.516765        -0.258207
 C         4.310443        -0.185863        -1.178453
 O         3.580454        -1.465674        -1.071317
 C         2.825265        -0.993414         0.111303
 C         3.135589         1.445149         0.866668
 O         1.937208         0.717994         1.356878
 H         0.048663        -1.794904         0.449458
 H        -0.238705        -0.464825         1.496458
 H        -0.605343        -0.385167        -0.174121
 H         1.964397         0.430804        -2.001584
 H         1.657942         1.862240        -0.851971
 H         4.113477        -0.025215        -2.223416
 H         5.408965        -0.217001        -1.001965
 H         3.204213        -1.503834         0.985615
 H         3.921733         1.514626         1.610913
 H         2.889483         2.488235         0.649022
