19
Iteration:  1567charge 0 multiplicity 1
 C         0.138112        -0.785437         0.577970
 C         1.456671        -0.172762         0.165275
 C         1.873243         0.249772        -1.197960
 C         3.322733         0.458983        -0.459161
 C         4.512065        -0.369510        -0.961523
 O         3.771715        -1.552234        -0.524943
 C         2.916638        -0.679042         0.440443
 C         3.013337         1.661181         0.468528
 O         1.719515         1.063441         1.013938
 H        -0.657367        -0.136573         0.189614
 H        -0.007761        -1.792576         0.194482
 H         0.030859        -0.776525         1.646231
 H         2.081436        -0.544898        -1.977682
 H         1.317192         1.117628        -1.545480
 H         4.943064        -0.353387        -1.978720
 H         5.336172        -0.246456        -0.187767
 H         3.188632        -0.812674         1.527170
 H         3.684192         1.602166         1.276517
 H         2.589236         2.588321         0.192839
