19
Iteration:  2096
 C         0.001723        -0.893374         0.538171
 C         1.429634        -0.120657         0.275257
 C         1.856274         0.574706        -1.073338
 C         3.368446         0.478355        -0.319443
 C         4.497630        -0.275704        -1.162483
 O         3.696473        -1.492626        -0.866847
 C         2.826456        -0.881125         0.231877
 C         3.212596         1.493316         0.799505
 O         1.828619         1.027399         1.184880
 H        -0.695648        -0.720878        -0.385655
 H         0.283098        -1.968246         0.469943
 H        -0.619031        -0.679324         1.443733
 H         1.614611        -0.111270        -1.927833
 H         1.516738         1.555846        -1.012892
 H         4.600764         0.000043        -2.185973
 H         5.421128        -0.286622        -0.572309
 H         3.156372        -1.393769         1.117023
 H         3.912947         1.309616         1.765200
 H         3.254274         2.418603         0.289524
