19
Iteration:   146
 C         0.284945        -0.774576         0.724346
 C         1.547171        -0.275666         0.154208
 C         2.164269        -0.687468        -1.239958
 C         3.286542         0.269656        -0.689431
 C         4.615432        -0.408382        -0.272041
 O         3.954481        -1.133142         0.731915
 C         2.949390        -0.137320         0.754131
 C         2.587140         1.670773        -0.653803
 O         1.367794         1.233005         0.039394
 H         0.308360        -1.385973         1.627689
 H        -0.374533         0.076287         0.909305
 H        -0.230559        -1.269408        -0.091845
 H         2.445707        -1.728405        -1.463666
 H         1.633381        -0.261866        -2.097425
 H         5.055204        -1.063733        -0.973335
 H         5.364888         0.285381         0.200805
 H         2.983929         0.564419         1.645709
 H         3.185122         2.479244        -0.204854
 H         2.407897         2.019904        -1.644477
