19
Iteration:  1619charge 0 multiplicity 1
 C         0.142811        -0.860841         0.536231
 C         1.487363        -0.191500         0.177659
 C         1.919277         0.315123        -1.139810
 C         3.339252         0.439244        -0.367441
 C         4.442164        -0.357984        -0.966318
 O         3.750303        -1.532027        -0.548076
 C         2.944539        -0.821600         0.438103
 C         3.075582         1.661425         0.462873
 O         1.664541         1.174862         1.015952
 H        -0.272025        -1.297731        -0.388867
 H         0.225917        -1.729001         1.237356
 H        -0.589135        -0.074327         0.884514
 H         1.978263        -0.407343        -1.921883
 H         1.382633         1.214909        -1.418073
 H         4.342280        -0.155284        -2.061960
 H         5.508726        -0.369763        -0.726764
 H         3.236200        -1.027379         1.441928
 H         3.760612         2.005182         1.397892
 H         2.736315         2.533132        -0.055357
