19
Iteration:   111
 C         0.249185        -0.867499         0.779698
 C         1.431311        -0.148818         0.125769
 C         2.200304        -0.722539        -1.149940
 C         3.260505         0.254938        -0.535522
 C         4.576836        -0.358560        -0.282957
 O         4.030576        -1.170029         0.670968
 C         2.934509        -0.172601         0.837381
 C         2.692408         1.617388        -0.694287
 O         1.322340         1.360167        -0.163974
 H         0.299005        -1.869543         0.419520
 H         0.285325        -0.780967         1.886519
 H        -0.703819        -0.515172         0.349915
 H         2.407064        -1.801595        -1.131028
 H         1.908851        -0.343534        -2.099081
 H         5.073143        -0.840403        -1.090563
 H         5.297828         0.393360         0.168948
 H         3.114243         0.435606         1.717882
 H         3.068235         2.339442        -0.082085
 H         2.613579         1.917565        -1.643435
