19
Iteration:  4363
 C         0.094939        -0.631729         0.392488
 C         1.568461        -0.235558         0.350330
 C         1.968172         0.981605        -0.631531
 C         3.352251         0.593464        -0.208404
 C         4.214355        -0.033526        -1.350835
 O         3.215404        -1.058193        -1.629871
 C         2.882334        -0.909494        -0.204682
 C         3.375046         0.909450         1.253962
 O         2.071353         0.306763         1.663914
 H        -0.329020        -0.235791        -0.499244
 H        -0.005013        -1.765491         0.375083
 H        -0.500345        -0.177118         1.218964
 H         1.886417         0.660651        -1.696319
 H         1.697829         1.964368        -0.320579
 H         4.358139         0.613873        -2.258805
 H         5.144641        -0.493495        -1.099392
 H         3.272619        -1.813991         0.580995
 H         4.146030         0.392349         1.876614
 H         3.425611         1.962376         1.616093
