19
Iteration:   286charge 0 multiplicity 1
 C         0.194128        -0.862890         0.706944
 C         1.540684        -0.278971         0.217166
 C         2.167983        -0.591947        -1.087462
 C         3.319938         0.393537        -0.606409
 C         4.664665        -0.409013        -0.457678
 O         3.911593        -1.284578         0.584626
 C         2.999138        -0.217969         0.788311
 C         2.685965         1.763439        -0.506946
 O         1.301835         1.302882        -0.070736
 H        -0.077447        -1.842080         0.256159
 H         0.187438        -0.952248         1.804601
 H        -0.564737        -0.109964         0.482098
 H         2.454157        -1.617243        -1.101187
 H         1.483252        -0.371757        -1.897067
 H         4.990354        -0.983423        -1.275160
 H         5.552168         0.059871         0.059279
 H         3.184887         0.483865         1.523081
 H         2.948937         2.332086         0.351958
 H         2.708359         2.352994        -1.504263
