19
Iteration:  1132charge 0 multiplicity 1
 C         0.157715        -0.754018         0.622404
 C         1.541394        -0.183745         0.182278
 C         2.048823         0.009629        -1.252515
 C         3.332223         0.487331        -0.535155
 C         4.555923        -0.511552        -0.772472
 O         3.826833        -1.542002        -0.163850
 C         2.984863        -0.586999         0.575685
 C         2.741765         1.786429         0.213897
 O         1.562965         1.144897         0.682246
 H        -0.367788         0.135822         0.960455
 H        -0.292261        -1.166934        -0.274179
 H         0.202188        -1.554420         1.386714
 H         2.093562        -0.937549        -1.795760
 H         1.502790         0.808322        -1.758520
 H         4.945563        -0.620365        -1.763043
 H         5.394865        -0.212553        -0.198983
 H         3.160319        -0.430326         1.616962
 H         3.407542         1.931894         1.108440
 H         2.520952         2.619333        -0.418127
