19
Iteration:  4690
 C         0.126158        -0.739285         0.411737
 C         1.574849        -0.122666         0.202058
 C         1.955981         1.019328        -0.648972
 C         3.414961         0.491020        -0.214523
 C         4.234404        -0.038258        -1.385417
 O         3.113595        -0.983967        -1.633457
 C         2.820567        -0.977864        -0.203383
 C         3.408868         0.918847         1.408537
 O         2.083493         0.358219         1.675955
 H        -0.124829        -1.410671        -0.473447
 H         0.225797        -1.316998         1.444001
 H        -0.726190         0.107817         0.300994
 H         2.003011         0.674909        -1.728774
 H         1.631959         1.909492        -0.288209
 H         4.486967         0.607027        -2.258287
 H         5.088099        -0.536579        -1.007077
 H         3.318909        -1.946611         0.346806
 H         4.217295         0.462645         2.001613
 H         3.443217         2.028441         1.694429
