19
Iteration:   956charge 0 multiplicity 1
 C         0.163727        -0.771710         0.607118
 C         1.467598        -0.185102         0.115268
 C         2.057037        -0.127888        -1.327513
 C         3.299379         0.455642        -0.554489
 C         4.565681        -0.420529        -0.736605
 O         3.878851        -1.520839         0.072389
 C         2.938958        -0.559108         0.588796
 C         2.829267         1.803413         0.032073
 O         1.549940         1.189123         0.709582
 H        -0.752346        -0.288537         0.226345
 H         0.128572        -1.838191         0.325149
 H         0.203846        -0.557672         1.688389
 H         2.147698        -1.202136        -1.717122
 H         1.394442         0.470733        -1.959699
 H         4.748113        -0.824329        -1.746381
 H         5.478374        -0.113813        -0.178287
 H         3.241832        -0.406892         1.604241
 H         3.417116         2.420363         0.854155
 H         2.430397         2.499650        -0.728914
