19
Iteration:  4913charge 0 multiplicity 1
 C         0.128434        -0.514326         0.508546
 C         1.529228        -0.212369         0.270772
 C         1.943682         0.974542        -0.640416
 C         3.359503         0.496159        -0.265573
 C         4.287338         0.043282        -1.364113
 O         3.305445        -1.050054        -1.578905
 C         2.842092        -0.970592        -0.191490
 C         3.262412         0.868637         1.250002
 O         2.071847         0.240961         1.612884
 H        -0.335478        -0.738817        -0.519021
 H         0.087545        -1.441884         1.091317
 H        -0.326708         0.367790         1.180505
 H         1.657655         0.915245        -1.587007
 H         1.690801         1.930813        -0.242079
 H         4.256945         0.581237        -2.309433
 H         5.309801        -0.317932        -1.154629
 H         3.259346        -1.836717         0.430168
 H         4.110867         0.473505         1.896130
 H         3.174841         1.957281         1.408852
