19
Iteration:  4983
 C         0.110375        -0.711413         0.413321
 C         1.513972        -0.115047         0.290423
 C         2.025196         0.992491        -0.543824
 C         3.420579         0.575158        -0.186253
 C         4.216539        -0.056487        -1.429410
 O         3.192769        -1.074495        -1.577551
 C         2.796550        -0.915004        -0.177987
 C         3.404118         0.856020         1.303586
 O         2.033036         0.375757         1.527567
 H        -0.300848        -0.972398        -0.548389
 H         0.354044        -1.702240         0.930578
 H        -0.480212        -0.208596         1.143708
 H         1.828089         0.861823        -1.736521
 H         1.675314         2.017866        -0.234550
 H         4.354598         0.647419        -2.279135
 H         5.183449        -0.373398        -1.133059
 H         3.437699        -1.571000         0.667693
 H         4.232400         0.220296         1.785133
 H         3.401295         1.929437         1.715149
