19
Iteration:  1638
 C         0.140140        -0.921883         0.512276
 C         1.487953        -0.207066         0.293772
 C         1.949998         0.284320        -1.082189
 C         3.303281         0.501443        -0.409551
 C         4.454749        -0.326191        -1.011489
 O         3.676438        -1.593152        -0.623114
 C         2.928521        -0.752838         0.450261
 C         3.032229         1.690669         0.565057
 O         1.740423         1.217295         0.939697
 H         0.132389        -1.785941        -0.145573
 H         0.031090        -1.369178         1.526745
 H        -0.758837        -0.263126         0.237195
 H         2.015608        -0.474053        -1.785011
 H         1.482172         1.245929        -1.480421
 H         4.737346        -0.310647        -2.061826
 H         5.320794        -0.154343        -0.408320
 H         3.301013        -1.023183         1.427680
 H         3.601834         1.500350         1.462003
 H         3.059231         2.615348        -0.089404
