19
Iteration:  3684
 C         0.059465        -0.592285         0.422434
 C         1.522766        -0.186797         0.262989
 C         2.003183         0.917801        -0.683035
 C         3.374747         0.529901        -0.244869
 C         4.256308         0.053548        -1.372753
 O         3.197540        -1.017918        -1.521785
 C         2.882519        -0.912085        -0.143542
 C         3.323747         0.889802         1.263039
 O         2.131238         0.241979         1.637210
 H        -0.630334         0.024353        -0.163068
 H        -0.153769        -1.766528         0.056356
 H        -0.189806        -0.521253         1.541103
 H         1.682406         0.617739        -1.667883
 H         1.618213         1.891994        -0.538791
 H         4.396767         0.614833        -2.355327
 H         5.249630        -0.416487        -1.159967
 H         3.429006        -1.636731         0.476435
 H         4.231353         0.452169         1.905897
 H         3.187561         1.930756         1.563474
