19
Iteration:  1906
 C         0.127269        -0.761446         0.539778
 C         1.528421        -0.126093         0.286214
 C         1.874242         0.301760        -1.179056
 C         3.361936         0.594814        -0.453624
 C         4.487491        -0.243099        -1.085494
 O         3.583302        -1.525098        -0.714277
 C         2.927067        -0.747520         0.300756
 C         3.050602         1.454750         0.736887
 O         1.772858         0.975780         1.113724
 H         0.078457        -1.895298         0.391367
 H        -0.124403        -0.542781         1.620731
 H        -0.661674        -0.200391        -0.076672
 H         1.964215        -0.535393        -1.738590
 H         1.362455         1.206797        -1.616515
 H         4.719560        -0.141743        -2.137411
 H         5.352480        -0.403782        -0.442683
 H         3.417342        -0.960256         1.221696
 H         3.926414         1.152469         1.526813
 H         3.134497         2.615591         0.676637
