19
Iteration:   539charge 0 multiplicity 1
 C         0.221461        -0.875662         0.740357
 C         1.442538        -0.221155         0.044558
 C         2.109509        -0.428517        -1.310715
 C         3.350311         0.411422        -0.580988
 C         4.610545        -0.407988        -0.499126
 O         3.926780        -1.389128         0.460421
 C         2.854404        -0.309210         0.720028
 C         2.704457         1.769162        -0.354618
 O         1.495174         1.299716         0.295196
 H         0.478534        -1.354982         1.717997
 H        -0.508702        -0.083804         0.838546
 H        -0.245312        -1.684387         0.130439
 H         2.374716        -1.516911        -1.492908
 H         1.659921         0.242571        -2.077599
 H         4.934828        -0.958498        -1.355541
 H         5.499134         0.125861        -0.145613
 H         3.003825         0.037900         1.751937
 H         3.298898         2.317743         0.336288
 H         2.389392         2.245938        -1.332624
