19
Iteration:  4381
 C         0.187200        -0.696667         0.377300
 C         1.549896        -0.066110         0.254538
 C         1.911955         1.017266        -0.661621
 C         3.444090         0.516709        -0.199360
 C         4.197663         0.020503        -1.424331
 O         3.182439        -1.072734        -1.505939
 C         2.791145        -0.876686        -0.116642
 C         3.424419         0.812968         1.331329
 O         2.055016         0.287397         1.576905
 H        -0.517439        -0.517349        -0.461017
 H         0.242270        -1.750982         0.530253
 H        -0.276205        -0.332019         1.240977
 H         1.771468         0.558817        -1.820100
 H         1.591962         2.055718        -0.382296
 H         4.330004         0.731110        -2.258111
 H         5.203230        -0.326638        -1.051583
 H         3.216428        -1.621833         0.433142
 H         4.196566         0.316132         1.861638
 H         3.515771         1.892254         1.592406
