19
Iteration:   733charge 0 multiplicity 1
 C         0.262061        -0.885932         0.655175
 C         1.486397        -0.158043         0.159020
 C         2.089073        -0.266582        -1.240807
 C         3.314119         0.435463        -0.621860
 C         4.548474        -0.421608        -0.626566
 O         3.806596        -1.483634         0.250056
 C         2.910944        -0.425860         0.724223
 C         2.814213         1.767793        -0.127491
 O         1.482097         1.285915         0.353502
 H         0.239481        -0.745659         1.765834
 H        -0.650165        -0.374426         0.405035
 H         0.314119        -1.986236         0.406440
 H         2.272387        -1.325635        -1.606420
 H         1.725680         0.225134        -2.154262
 H         4.979145        -0.807209        -1.562742
 H         5.258569         0.074635         0.078052
 H         3.237607        -0.128848         1.728667
 H         3.477451         2.350477         0.574282
 H         2.572688         2.531235        -0.783040
