19
Iteration:  4374
 C         0.169454        -0.653289         0.370165
 C         1.531909        -0.103621         0.279925
 C         1.953156         0.980309        -0.653422
 C         3.383004         0.522918        -0.174928
 C         4.174784        -0.003971        -1.394260
 O         3.200424        -1.046926        -1.564978
 C         2.835836        -0.891812        -0.145155
 C         3.429723         0.849696         1.325706
 O         2.054928         0.289935         1.611759
 H        -0.383056        -0.420117        -0.503067
 H         0.206919        -1.778387         0.452829
 H        -0.308663        -0.289643         1.309483
 H         1.720707         0.759686        -1.749712
 H         1.514234         1.945969        -0.559399
 H         4.313020         0.519010        -2.372478
 H         5.094172        -0.436309        -1.044791
 H         3.575510        -1.595565         0.596299
 H         4.232344         0.253664         1.831086
 H         3.364408         1.927640         1.551089
