19
Iteration:   517
 C         0.162955        -0.717588         0.707259
 C         1.533897        -0.295409         0.165027
 C         2.176022        -0.382244        -1.290366
 C         3.279716         0.405421        -0.620127
 C         4.651835        -0.434158        -0.498251
 O         3.889379        -1.322838         0.450621
 C         2.982931        -0.327358         0.721013
 C         2.666215         1.752854        -0.362837
 O         1.403404         1.156269         0.272637
 H         0.269687        -1.703970         1.237701
 H        -0.192297         0.095381         1.310426
 H        -0.549769        -0.933178        -0.129397
 H         2.646288        -1.401714        -1.416186
 H         1.623140         0.129991        -2.119935
 H         4.953281        -0.976377        -1.370535
 H         5.545870         0.050011        -0.093366
 H         3.207683         0.110755         1.709003
 H         3.236250         2.307365         0.329685
 H         2.284784         2.161629        -1.314266
