19
Iteration:  4685charge 0 multiplicity 1
 C         0.115289        -0.724273         0.415863
 C         1.530150        -0.116653         0.208742
 C         1.966229         0.974919        -0.665181
 C         3.425437         0.481604        -0.228540
 C         4.222186        -0.030845        -1.375851
 O         3.128072        -0.978811        -1.630892
 C         2.828784        -0.943053        -0.168715
 C         3.396239         0.926592         1.413429
 O         2.125098         0.330676         1.655294
 H        -0.036899        -1.435631        -0.399891
 H         0.146775        -1.197894         1.348867
 H        -0.611635        -0.021865         0.339902
 H         1.845038         0.759470        -1.693138
 H         1.665805         2.072077        -0.294317
 H         4.500897         0.630826        -2.187408
 H         5.146256        -0.703381        -1.164178
 H         3.206271        -1.757323         0.253954
 H         4.093535         0.425699         2.110090
 H         3.331343         1.958296         1.651410
