19
Iteration:  1242
 C         0.158144        -0.796986         0.560709
 C         1.444041        -0.137451         0.173272
 C         2.038369         0.103610        -1.221068
 C         3.299664         0.435948        -0.424325
 C         4.550838        -0.397753        -0.833033
 O         3.860944        -1.582091        -0.214972
 C         2.871117        -0.651613         0.537482
 C         2.836299         1.716675         0.210639
 O         1.682822         1.162043         0.800373
 H         0.198367        -1.889424         0.794395
 H        -0.238580        -0.228197         1.428504
 H        -0.717555        -0.767198        -0.125453
 H         2.174871        -0.734109        -1.803752
 H         1.560343         0.961021        -1.796219
 H         4.467060        -0.511931        -1.933600
 H         5.629940        -0.156729        -0.568824
 H         2.991328        -0.558508         1.617817
 H         3.490288         2.086049         1.076281
 H         2.524696         2.434283        -0.525985
