19
Iteration:  3510
 C         0.066975        -0.824051         0.435090
 C         1.515569        -0.111612         0.242798
 C         1.888402         1.029129        -0.678256
 C         3.383246         0.538266        -0.224014
 C         4.235766        -0.097283        -1.314341
 O         3.355934        -1.146286        -1.494976
 C         2.774299        -0.875668        -0.133053
 C         3.439037         0.961859         1.201005
 O         2.074132         0.432017         1.565744
 H         0.207638        -1.874183         0.568956
 H        -0.477486        -0.478629         1.440473
 H        -0.556480        -0.559665        -0.482337
 H         1.773674         1.131742        -1.761498
 H         1.545673         2.014980        -0.248364
 H         4.301696         0.547407        -2.169175
 H         5.174025        -0.468592        -0.915532
 H         3.000360        -1.709841         0.532502
 H         4.196983         0.416596         1.737548
 H         3.470416         2.136423         1.367038
