19
Iteration:  1813
 C         0.237425        -0.822950         0.554039
 C         1.488777        -0.160299         0.266811
 C         1.920296         0.320692        -1.239030
 C         3.279476         0.523608        -0.422802
 C         4.430218        -0.306324        -0.999518
 O         3.541693        -1.470815        -0.665676
 C         2.966422        -0.697507         0.357855
 C         3.144296         1.505666         0.646705
 O         1.719526         1.007522         1.052921
 H        -0.554959        -0.190971         0.210777
 H         0.224810        -1.809846         0.100251
 H         0.165320        -0.893359         1.666090
 H         2.136696        -0.486248        -2.017317
 H         1.273475         1.104169        -1.679470
 H         4.681975        -0.158595        -2.093902
 H         5.317352        -0.482228        -0.286287
 H         3.334750        -0.843300         1.437245
 H         3.727891         1.359662         1.513244
 H         3.059698         2.644525         0.546801
