19
Iteration:  3966charge 0 multiplicity 1
 C         0.057492        -0.805112         0.414327
 C         1.456298        -0.067061         0.238426
 C         2.032583         1.135017        -0.611108
 C         3.377082         0.503552        -0.195856
 C         4.187223         0.075174        -1.438916
 O         3.352584        -1.185607        -1.495402
 C         2.729504        -0.921888        -0.190510
 C         3.480226         0.851066         1.297736
 O         2.067880         0.343525         1.626886
 H        -0.598436        -0.629973        -0.582070
 H         0.087264        -1.893672         0.654662
 H        -0.571844        -0.277337         1.161626
 H         1.770195         1.031747        -1.640837
 H         1.878564         2.099794        -0.381828
 H         3.926543         0.764951        -2.315937
 H         5.280623        -0.138700        -1.410851
 H         3.070423        -1.783381         0.463091
 H         4.263667         0.289965         1.711890
 H         3.477968         1.932945         1.626366
