19
Iteration:   568
 C         0.295390        -0.909953         0.690878
 C         1.479910        -0.099556         0.178067
 C         2.050102        -0.364401        -1.182426
 C         3.307975         0.379411        -0.594245
 C         4.558763        -0.466203        -0.472216
 O         3.941686        -1.438754         0.346959
 C         2.916215        -0.320590         0.786342
 C         2.740188         1.750524        -0.337968
 O         1.412442         1.326970         0.163723
 H        -0.027428        -0.733243         1.734006
 H        -0.486507        -0.743793        -0.017454
 H         0.621252        -1.944863         0.565770
 H         2.137836        -1.379062        -1.581960
 H         1.537188         0.226335        -1.922340
 H         5.059924        -0.942540        -1.375996
 H         5.310831         0.192476         0.051094
 H         3.229011        -0.054384         1.793049
 H         3.307019         2.319772         0.512181
 H         2.613596         2.414301        -1.180765
