19
Iteration:  1493
 C         0.281298        -0.794696         0.534729
 C         1.569537        -0.197774         0.134523
 C         1.976774         0.321978        -1.286510
 C         3.298253         0.521074        -0.506004
 C         4.408753        -0.410191        -0.912297
 O         3.713518        -1.626011        -0.408871
 C         2.923505        -0.649133         0.487053
 C         2.950856         1.665924         0.472315
 O         1.643858         1.067709         1.009393
 H         0.292496        -0.660304         1.665760
 H        -0.624088        -0.331712         0.077851
 H         0.231607        -1.834891         0.269397
 H         1.901669        -0.568708        -2.051862
 H         1.489882         1.220289        -1.663007
 H         4.563864        -0.678585        -1.931679
 H         5.316371        -0.288544        -0.326450
 H         3.185124        -0.720020         1.587096
 H         3.586031         1.820512         1.326138
 H         2.588056         2.670238        -0.078383
