19
Iteration:  4400charge 0 multiplicity 1
 C         0.160497        -0.795770         0.473934
 C         1.469452        -0.079171         0.221735
 C         2.038479         1.124558        -0.628452
 C         3.384232         0.534131        -0.174182
 C         4.198040         0.020729        -1.384980
 O         3.282114        -1.120428        -1.519063
 C         2.706225        -0.895370        -0.218565
 C         3.430609         0.821315         1.286569
 O         2.051229         0.354557         1.563553
 H        -0.355593        -0.826275        -0.575049
 H         0.276698        -1.853278         0.761140
 H        -0.509502        -0.299885         1.310942
 H         1.905720         1.126873        -1.620959
 H         1.749913         2.128425        -0.256376
 H         4.069298         0.593564        -2.296440
 H         5.278859        -0.361167        -1.291629
 H         2.999171        -1.845847         0.568785
 H         4.242100         0.140662         1.726778
 H         3.511356         1.864075         1.601496
