19
Iteration:  4233
 C         0.177561        -0.675311         0.338579
 C         1.545820        -0.153061         0.277519
 C         2.044629         1.013088        -0.618387
 C         3.441321         0.550988        -0.168871
 C         4.201720        -0.010987        -1.476102
 O         3.117533        -1.064008        -1.548235
 C         2.851878        -0.856642        -0.163796
 C         3.332682         0.947330         1.372118
 O         2.085419         0.209327         1.631605
 H        -0.047802        -1.368373        -0.485814
 H        -0.164164        -1.285740         1.271281
 H        -0.649641         0.179448         0.396417
 H         1.903985         0.836961        -1.640665
 H         1.630461         2.030942        -0.354788
 H         4.319307         0.465311        -2.509820
 H         5.136411        -0.561152        -1.138002
 H         3.274559        -1.599446         0.422713
 H         4.161052         0.367408         1.940761
 H         3.194107         1.998866         1.588175
