19
Iteration:  4264charge 0 multiplicity 1
 C         0.165386        -0.718736         0.333269
 C         1.464892        -0.155303         0.302266
 C         2.015282         1.025424        -0.543067
 C         3.383336         0.417093        -0.157069
 C         4.235453         0.054916        -1.352139
 O         3.189889        -1.012440        -1.593641
 C         2.741777        -0.947645        -0.195907
 C         3.429760         0.902230         1.204410
 O         2.103210         0.344272         1.645495
 H         0.210830        -1.550812        -0.435172
 H         0.049807        -1.144808         1.425266
 H        -0.646879         0.057861         0.023960
 H         1.767140         0.835291        -1.589312
 H         1.739412         1.913758        -0.126284
 H         4.367590         0.667889        -2.305744
 H         5.164837        -0.430788        -1.014851
 H         3.014578        -1.829566         0.313319
 H         4.196190         0.402009         1.870613
 H         3.367145         2.011956         1.462870
