19
Iteration:  2419
 C         0.165621        -0.847852         0.552556
 C         1.475274        -0.074530         0.205296
 C         1.940536         0.799697        -0.960035
 C         3.440133         0.455247        -0.262736
 C         4.333650        -0.291662        -1.264791
 O         3.613019        -1.499372        -1.022369
 C         2.833287        -0.928679         0.116747
 C         3.125375         1.390475         0.933483
 O         1.808508         0.887164         1.301309
 H        -0.450278        -0.938079        -0.298300
 H         0.355085        -1.813652         1.070058
 H        -0.335051        -0.121298         1.212996
 H         1.733398         0.254354        -1.928891
 H         1.527967         1.833811        -0.913695
 H         4.388803         0.040700        -2.355585
 H         5.392381        -0.439860        -0.901139
 H         3.105427        -1.501318         0.976253
 H         3.941523         1.174069         1.716321
 H         2.986691         2.452892         0.674149
