19
Iteration:  2572
 C         0.257840        -0.762995         0.503239
 C         1.514738        -0.112933         0.215810
 C         1.923092         0.786943        -0.981763
 C         3.336597         0.475903        -0.278416
 C         4.346781        -0.231746        -1.141502
 O         3.486204        -1.438852        -1.078139
 C         2.776647        -0.928417         0.098015
 C         3.153158         1.399605         0.881625
 O         1.935415         0.728172         1.374893
 H         0.577154        -1.580606         1.252664
 H        -0.634588        -0.181566         0.988787
 H        -0.159288        -1.170641        -0.479363
 H         1.804094         0.462475        -1.948106
 H         1.529449         1.740686        -0.836347
 H         4.492391         0.261186        -2.150390
 H         5.294517        -0.650670        -0.732579
 H         2.999697        -1.542036         0.955692
 H         3.907079         1.338781         1.700320
 H         2.893842         2.353507         0.498927
