19
Iteration:  1592charge 0 multiplicity 1
 C         0.183112        -0.743766         0.609428
 C         1.516961        -0.148408         0.140987
 C         2.006841         0.313770        -1.231156
 C         3.333091         0.543614        -0.541010
 C         4.427675        -0.387359        -0.990784
 O         3.706314        -1.579928        -0.429471
 C         2.980167        -0.724127         0.351806
 C         2.890804         1.639621         0.566163
 O         1.734087         0.978362         1.046081
 H        -0.530086        -0.596696        -0.234970
 H         0.162160        -1.797194         0.837580
 H        -0.235576        -0.128306         1.382328
 H         2.116219        -0.625362        -1.887487
 H         1.510510         1.159947        -1.739911
 H         4.597512        -0.344344        -2.061581
 H         5.375119        -0.308765        -0.449015
 H         3.248774        -0.753708         1.463245
 H         3.565633         1.751326         1.347443
 H         2.240872         2.527197         0.180814
