19
Iteration:  4677charge 0 multiplicity 1
 C         0.152286        -0.691966         0.407708
 C         1.483982        -0.158751         0.286210
 C         1.998267         0.970149        -0.670930
 C         3.453869         0.496951        -0.150483
 C         4.245155        -0.040071        -1.388779
 O         3.158977        -0.986126        -1.630285
 C         2.774518        -0.847673        -0.158140
 C         3.373085         0.904350         1.350893
 O         2.135763         0.271591         1.601814
 H         0.040468        -1.573973        -0.334173
 H        -0.046361        -1.196755         1.461484
 H        -0.699051         0.078690         0.397246
 H         1.614908         0.919703        -1.672755
 H         1.766730         2.007062        -0.451543
 H         4.389011         0.671137        -2.207089
 H         5.108893        -0.607360        -1.224465
 H         3.121401        -1.719322         0.437684
 H         4.069346         0.442871         2.015639
 H         3.299740         1.991240         1.468172
