19
Iteration:  1292
 C         0.136820        -0.782677         0.563430
 C         1.459527        -0.171411         0.165335
 C         1.932580         0.071566        -1.228473
 C         3.338590         0.484956        -0.469356
 C         4.518297        -0.396898        -0.826955
 O         3.765113        -1.503137        -0.286933
 C         2.978429        -0.694916         0.549935
 C         2.953754         1.695988         0.307143
 O         1.648636         1.156253         0.776519
 H        -0.012374        -0.722957         1.629278
 H        -0.729319        -0.408034         0.039654
 H         0.116588        -1.885834         0.481077
 H         2.077648        -0.858481        -1.881390
 H         1.448657         0.898050        -1.767588
 H         4.984962        -0.358013        -1.804165
 H         5.349060        -0.121882        -0.205321
 H         3.249390        -0.691851         1.642340
 H         3.481349         1.798651         1.195555
 H         2.754343         2.608575        -0.329134
