19
Iteration:  1876charge 0 multiplicity 1
 C         0.126732        -0.761385         0.514295
 C         1.494217        -0.178531         0.191096
 C         1.942487         0.492127        -1.129609
 C         3.273337         0.517943        -0.405924
 C         4.360117        -0.289757        -1.099147
 O         3.722767        -1.573196        -0.631609
 C         2.897803        -0.836705         0.339633
 C         3.013800         1.564286         0.606081
 O         1.844294         0.948560         1.156274
 H        -0.222842        -1.475714        -0.201523
 H         0.191311        -1.290709         1.491239
 H        -0.601249         0.045202         0.741867
 H         1.954412        -0.213849        -1.962964
 H         1.541765         1.517753        -1.386837
 H         4.613789        -0.280991        -2.133898
 H         5.328830        -0.258610        -0.572445
 H         3.347830        -1.100790         1.308341
 H         3.783239         1.574285         1.411642
 H         2.846121         2.559381         0.279889
