19
Iteration:  4620charge 0 multiplicity 1
 C         0.043827        -0.583586         0.507776
 C         1.469745        -0.170131         0.299445
 C         1.877536         1.024525        -0.646171
 C         3.356582         0.581891        -0.188311
 C         4.249005         0.099725        -1.452305
 O         3.387627        -1.112666        -1.499151
 C         2.814305        -0.922843        -0.221509
 C         3.494984         0.739484         1.246352
 O         2.023839         0.278048         1.574140
 H        -0.428071        -0.914073        -0.490593
 H         0.071967        -1.433459         1.238399
 H        -0.542268         0.245322         0.858824
 H         1.698354         0.688968        -1.591296
 H         1.634460         2.119341        -0.383303
 H         4.287026         0.685249        -2.335144
 H         5.232449        -0.226567        -1.215905
 H         3.066578        -1.643070         0.482834
 H         4.205562         0.057521         1.709562
 H         3.673639         1.718680         1.537999
