19
Iteration:  3076charge 0 multiplicity 1
 C         0.186366        -0.666474         0.455946
 C         1.528480        -0.167630         0.183347
 C         1.880512         0.830310        -0.920247
 C         3.304575         0.594872        -0.338590
 C         4.239920        -0.068359        -1.284285
 O         3.382462        -1.287717        -1.259761
 C         2.866091        -0.874812         0.094586
 C         3.306733         1.074854         1.101457
 O         2.017477         0.502159         1.515359
 H        -0.313409        -0.958142        -0.542693
 H         0.320443        -1.519447         1.120259
 H        -0.420728         0.021275         1.178563
 H         1.794027         0.487128        -1.963862
 H         1.409666         1.931710        -0.827380
 H         4.529829         0.329463        -2.271236
 H         5.196037        -0.372618        -0.702735
 H         3.088511        -1.593333         0.934530
 H         4.046089         0.627126         1.781065
 H         3.352468         2.117762         1.253503
