19
Iteration:  1340
 C         0.205501        -0.806783         0.557861
 C         1.506870        -0.220471         0.175039
 C         2.032412         0.186054        -1.246809
 C         3.360189         0.536406        -0.427817
 C         4.515293        -0.511060        -0.879705
 O         3.686512        -1.545835        -0.305174
 C         2.942282        -0.628254         0.536919
 C         2.961372         1.797623         0.334152
 O         1.551000         1.084658         0.838363
 H        -0.784280        -0.205601         0.623883
 H         0.078854        -1.693118        -0.140534
 H         0.296263        -1.243990         1.586817
 H         2.068024        -0.645984        -1.918070
 H         1.457983         1.032657        -1.714890
 H         4.687122        -0.677312        -1.954391
 H         5.577142        -0.285438        -0.508440
 H         3.369002        -0.681650         1.555444
 H         3.697571         2.049420         1.161099
 H         2.616320         2.672912        -0.246688
