19
Iteration:  4875
 C         0.086240        -0.705292         0.384915
 C         1.520132        -0.099837         0.321190
 C         2.001403         1.006823        -0.627045
 C         3.410344         0.496416        -0.202119
 C         4.212611         0.034521        -1.399017
 O         3.199886        -1.028628        -1.531389
 C         2.807955        -0.924864        -0.137672
 C         3.396832         0.811719         1.235498
 O         2.107883         0.323228         1.603575
 H        -0.094826        -1.339107        -0.480922
 H        -0.013907        -1.354501         1.294124
 H        -0.757675        -0.064675         0.216342
 H         1.676907         0.726480        -1.760481
 H         1.848599         2.014857        -0.184433
 H         4.302223         0.822579        -2.221534
 H         5.310368        -0.232549        -1.084819
 H         3.107590        -1.742360         0.465512
 H         4.152252         0.312637         1.799087
 H         3.470660         1.885858         1.449846
