19
Iteration:  3501charge 0 multiplicity 1
 C         0.085167        -0.824247         0.414670
 C         1.466018        -0.169578         0.269286
 C         1.953786         1.067036        -0.648120
 C         3.362876         0.502249        -0.222557
 C         4.270292        -0.077328        -1.299908
 O         3.322535        -1.143547        -1.539161
 C         2.760846        -0.905853        -0.150276
 C         3.410247         0.997589         1.141701
 O         2.060397         0.475879         1.644108
 H         0.184282        -1.901983         0.362425
 H        -0.370484        -0.611865         1.301447
 H        -0.562695        -0.494147        -0.434411
 H         1.666696         0.825027        -1.659078
 H         1.606708         2.105265        -0.132517
 H         4.555713         0.345511        -2.269919
 H         5.238062        -0.528664        -0.877449
 H         3.227076        -1.696777         0.466589
 H         4.254524         0.519738         1.808349
 H         3.514036         2.221080         1.252749
