19
Iteration:  1420
 C         0.223607        -0.668519         0.573750
 C         1.528185        -0.226034         0.088773
 C         1.989845         0.137804        -1.252651
 C         3.342984         0.562686        -0.390910
 C         4.498829        -0.425736        -0.915097
 O         3.772859        -1.576727        -0.394695
 C         2.943780        -0.687227         0.531579
 C         2.849005         1.703668         0.390296
 O         1.606002         1.034153         0.921311
 H         0.029792        -1.725818         0.240623
 H         0.141402        -0.504276         1.674836
 H        -0.542952         0.090778         0.247727
 H         2.089468        -0.598941        -2.094784
 H         1.372162         0.952761        -1.541281
 H         4.571775        -0.444152        -2.058029
 H         5.486504        -0.269277        -0.374730
 H         3.265978        -0.964773         1.504706
 H         3.501362         1.938414         1.347922
 H         2.664621         2.625312        -0.113628
