19
Iteration:  3863charge 0 multiplicity 1
 C         0.083301        -0.596825         0.537585
 C         1.446615        -0.129129         0.220763
 C         1.891642         1.091418        -0.620516
 C         3.336002         0.466511        -0.234904
 C         4.235695         0.097314        -1.382263
 O         3.409265        -1.109861        -1.597084
 C         2.823983        -0.963847        -0.259531
 C         3.418782         0.761147         1.276976
 O         2.041175         0.309869         1.624941
 H        -0.230324        -1.685774         0.195155
 H         0.189054        -0.751274         1.686590
 H        -0.877726        -0.072146         0.168921
 H         1.667197         0.940835        -1.630159
 H         1.695434         2.095296        -0.229572
 H         4.223150         0.693958        -2.289197
 H         5.351043        -0.180752        -1.158933
 H         3.226673        -1.640338         0.459034
 H         4.180501         0.061249         1.832812
 H         3.689732         1.793396         1.610252
