19
Iteration:  3388charge 0 multiplicity 1
 C         0.059289        -0.643056         0.515067
 C         1.499299        -0.193331         0.255286
 C         1.923568         0.932645        -0.788873
 C         3.356200         0.581508        -0.243986
 C         4.252377        -0.073567        -1.315100
 O         3.348886        -1.156683        -1.389140
 C         2.875913        -0.865317        -0.073170
 C         3.360511         1.003559         1.157681
 O         2.044528         0.329865         1.506329
 H        -0.663524        -0.212604        -0.140086
 H         0.029317        -1.723644         0.284767
 H        -0.093179        -0.361906         1.507017
 H         1.812534         0.581174        -1.929388
 H         1.470929         1.936864        -0.761211
 H         4.490809         0.374014        -2.326973
 H         5.212203        -0.388554        -0.807044
 H         3.274294        -1.564341         0.664468
 H         4.153353         0.621291         1.731097
 H         3.247191         2.229070         1.376092
