19
Iteration:  1122charge 0 multiplicity 1
 C         0.116650        -0.770741         0.602150
 C         1.498847        -0.284461         0.224669
 C         2.032870        -0.049902        -1.220357
 C         3.344517         0.476534        -0.528047
 C         4.571400        -0.399350        -0.795864
 O         3.797140        -1.599164        -0.123536
 C         2.997272        -0.506398         0.486216
 C         2.846000         1.768618         0.250335
 O         1.545180         1.204386         0.676420
 H        -0.413556        -0.006274         1.173517
 H        -0.444375        -0.927969        -0.320954
 H         0.062266        -1.681037         1.199427
 H         2.327556        -0.932332        -1.758401
 H         1.589212         0.659336        -1.961314
 H         4.806813        -0.698576        -1.833787
 H         5.369860        -0.069171        -0.182481
 H         3.402429        -0.565597         1.458743
 H         3.484157         2.308842         1.105713
 H         2.602583         2.601257        -0.384948
