19
Iteration:  4888
 C         0.055331        -0.643912         0.404639
 C         1.516518        -0.184639         0.298385
 C         1.972523         0.965403        -0.648872
 C         3.401774         0.506698        -0.148024
 C         4.207552         0.058152        -1.342152
 O         3.216483        -1.061622        -1.608029
 C         2.812260        -0.949376        -0.190695
 C         3.482739         0.951905         1.336063
 O         2.088299         0.265598         1.588213
 H        -0.053318        -1.211255        -0.555881
 H        -0.136389        -1.350592         1.281225
 H        -0.578494         0.292918         0.625426
 H         1.920674         0.774332        -1.729673
 H         1.565327         1.965262        -0.603843
 H         4.122600         0.659401        -2.277312
 H         5.245015        -0.470788        -1.267920
 H         3.234060        -1.668622         0.362596
 H         4.187547         0.463227         1.945656
 H         3.385523         2.003975         1.580937
