19
Iteration:   117
 C         0.219197        -0.885742         0.777317
 C         1.386485        -0.136065         0.105614
 C         2.170825        -0.711062        -1.139532
 C         3.273577         0.241155        -0.598493
 C         4.605989        -0.326368        -0.269354
 O         4.019430        -1.197084         0.674256
 C         2.915463        -0.128246         0.816432
 C         2.692466         1.662609        -0.671280
 O         1.392885         1.302966        -0.129178
 H         0.502332        -2.003060         0.717936
 H         0.144118        -0.615464         1.837623
 H        -0.749596        -0.701529         0.268043
 H         2.471999        -1.755047        -1.024735
 H         1.780184        -0.479481        -2.185587
 H         5.130735        -0.903090        -1.120304
 H         5.240977         0.402781         0.222312
 H         3.029866         0.560725         1.686093
 H         3.292346         2.420617         0.033899
 H         2.543515         1.987620        -1.834965
