19
Iteration:  2394
 C         0.128033        -0.706373         0.507747
 C         1.550249        -0.133928         0.238282
 C         1.930546         0.705965        -1.033190
 C         3.371030         0.503503        -0.330430
 C         4.322678        -0.269686        -1.177282
 O         3.542454        -1.512405        -1.009461
 C         2.886933        -0.858582         0.146085
 C         3.090243         1.482553         0.887785
 O         1.898512         0.690974         1.359577
 H        -0.581456        -0.486776        -0.366259
 H         0.282635        -1.875086         0.671320
 H        -0.266053        -0.203126         1.451483
 H         1.816792         0.208039        -2.002815
 H         1.613756         1.698061        -0.983759
 H         4.457640         0.168877        -2.230177
 H         5.363665        -0.381643        -0.703401
 H         3.328538        -1.279057         1.008669
 H         3.906399         1.286457         1.675720
 H         2.822563         2.496382         0.573050
