19
Iteration:  2922charge 0 multiplicity 1
 C         0.167938        -0.635076         0.464644
 C         1.520381        -0.153060         0.262971
 C         1.973806         0.723085        -0.934370
 C         3.375419         0.588266        -0.289449
 C         4.212680        -0.134080        -1.312502
 O         3.415169        -1.349003        -1.293609
 C         2.908987        -0.857361         0.071909
 C         3.181908         1.236718         1.120879
 O         1.963887         0.549047         1.492753
 H        -0.081081        -0.715351         1.533541
 H        -0.496432        -0.207721        -0.156706
 H         0.265803        -1.687067         0.299888
 H         1.942556         0.194370        -1.829745
 H         1.510697         1.858505        -1.002630
 H         4.434042         0.231832        -2.317245
 H         5.217216        -0.367118        -0.805880
 H         3.222522        -1.598561         0.903144
 H         3.916869         0.759339         1.802933
 H         3.063295         2.286327         1.334122
