19
Iteration:  3031charge 0 multiplicity 1
 C         0.215482        -0.768772         0.415090
 C         1.514364        -0.107650         0.260418
 C         2.001620         0.838037        -0.717828
 C         3.386769         0.426950        -0.232653
 C         4.307244        -0.060583        -1.353582
 O         3.348130        -1.371997        -1.360841
 C         2.861468        -0.947265         0.020165
 C         3.224060         1.183252         1.070264
 O         1.915840         0.666477         1.503454
 H        -0.572572        -0.211693        -0.285744
 H         0.200273        -1.856912         0.316640
 H        -0.208345        -0.570169         1.545652
 H         1.739048         0.621911        -1.712401
 H         1.614449         2.023130        -0.490156
 H         4.340235         0.310384        -2.388504
 H         5.391369        -0.313318        -0.978157
 H         3.199868        -1.586840         0.899883
 H         4.010514         1.045606         1.823701
 H         3.083016         2.230552         1.000862
