19
Iteration:  4555charge 0 multiplicity 1
 C         0.147767        -0.751951         0.433447
 C         1.560177        -0.146276         0.309609
 C         1.969400         1.080234        -0.620754
 C         3.396191         0.457021        -0.225891
 C         4.243813        -0.058736        -1.308541
 O         3.177993        -1.023223        -1.647082
 C         2.791976        -0.857063        -0.194969
 C         3.381572         0.880168         1.270959
 O         2.094622         0.343244         1.621184
 H        -0.504762        -0.593182        -0.574507
 H         0.039367        -1.885861         0.642652
 H        -0.537482        -0.251853         1.148241
 H         1.821435         0.858942        -1.601037
 H         1.697648         2.121610        -0.341874
 H         4.528165         0.521259        -2.137320
 H         5.037392        -0.632410        -0.929025
 H         3.259836        -1.741759         0.504165
 H         4.176042         0.463620         1.871771
 H         3.382654         1.957033         1.416667
