19
Iteration:  3242charge 0 multiplicity 1
 C         0.112573        -0.615263         0.557205
 C         1.547121        -0.190904         0.314365
 C         1.928174         0.770840        -0.846640
 C         3.399278         0.477287        -0.244923
 C         4.325589        -0.077986        -1.305989
 O         3.363287        -1.135356        -1.461306
 C         2.877372        -0.943656        -0.089731
 C         3.294375         1.025275         1.171580
 O         1.927761         0.550831         1.542538
 H        -0.217796        -0.552863         1.606404
 H        -0.566404         0.002122        -0.189257
 H         0.008402        -1.685966         0.302785
 H         1.847456         0.329526        -1.814648
 H         1.435156         1.768929        -0.791371
 H         4.415417         0.478041        -2.267090
 H         5.385118        -0.352033        -1.105531
 H         3.374127        -1.637055         0.616395
 H         3.940016         0.642533         1.984715
 H         3.062632         2.189407         1.243676
