19
Iteration:  3095charge 0 multiplicity 1
 C         0.134240        -0.696179         0.561441
 C         1.471217        -0.122327         0.258781
 C         1.863408         0.918208        -0.808985
 C         3.352185         0.567227        -0.292715
 C         4.343176        -0.122372        -1.230969
 O         3.478673        -1.347950        -1.303084
 C         2.802885        -0.894780        -0.122463
 C         3.273615         1.119118         1.070437
 O         1.982368         0.487412         1.447162
 H        -0.096685        -1.367062        -0.368090
 H        -0.005234        -1.193987         1.546934
 H        -0.590805         0.224492         0.707637
 H         1.673693         0.546623        -1.712491
 H         1.548627         1.894755        -0.719589
 H         4.381983         0.250584        -2.244325
 H         5.315430        -0.263289        -0.773663
 H         3.287157        -1.469782         0.693923
 H         4.203168         0.810405         1.653969
 H         3.173049         2.278639         1.238172
