19
Iteration:  1518
 C         0.117946        -0.843918         0.591201
 C         1.525447        -0.183876         0.199188
 C         2.053497         0.264202        -1.204370
 C         3.415185         0.524263        -0.404669
 C         4.497636        -0.410514        -0.976663
 O         3.642228        -1.549581        -0.482786
 C         2.942440        -0.637761         0.424861
 C         2.913084         1.697836         0.485264
 O         1.682661         1.085454         0.927962
 H        -0.294613        -0.280507         1.463249
 H        -0.634434        -0.996102        -0.212591
 H         0.378496        -1.898242         0.970038
 H         2.121826        -0.632413        -1.813829
 H         1.557427         1.099750        -1.694604
 H         4.502946        -0.681293        -2.055810
 H         5.494436        -0.495596        -0.537357
 H         3.181075        -0.806484         1.458594
 H         3.450720         1.768003         1.479414
 H         2.618442         2.615779         0.007573
