19
Iteration:  1192
 C         0.266316        -0.835233         0.568012
 C         1.538578        -0.172255         0.195002
 C         1.956733        -0.002295        -1.243470
 C         3.319765         0.464056        -0.491837
 C         4.543693        -0.429594        -0.812778
 O         3.727008        -1.553419        -0.186228
 C         2.994319        -0.531457         0.509967
 C         2.959831         1.693158         0.267296
 O         1.487091         1.250513         0.736548
 H        -0.255160        -1.121822        -0.357660
 H         0.320958        -1.785871         1.129135
 H        -0.478480        -0.226531         1.092869
 H         1.939050        -1.012397        -1.801605
 H         1.384399         0.730908        -1.800383
 H         4.897320        -0.671901        -1.862085
 H         5.348464        -0.329862        -0.028863
 H         3.194411        -0.376531         1.638199
 H         3.583742         1.926496         1.157883
 H         2.841776         2.668691        -0.310629
