19
Iteration:  3681
 C         0.029329        -0.617949         0.421019
 C         1.527097        -0.170416         0.274168
 C         2.016363         0.908364        -0.669257
 C         3.365346         0.524751        -0.243394
 C         4.275684         0.064796        -1.392593
 O         3.197782        -1.022964        -1.543714
 C         2.887816        -0.925616        -0.131285
 C         3.334191         0.861025         1.261498
 O         2.119242         0.277689         1.648906
 H        -0.693409        -0.018640        -0.039251
 H         0.018438        -1.576986         0.071623
 H        -0.224155        -0.597244         1.386513
 H         1.628985         0.660293        -1.795327
 H         1.600827         1.897504        -0.490969
 H         4.430222         0.598039        -2.382670
 H         5.255826        -0.355887        -1.108532
 H         3.370211        -1.686081         0.529557
 H         4.262171         0.449557         1.890740
 H         3.202478         1.988102         1.569582
