19
Iteration:  2238
 C         0.211199        -0.738997         0.490257
 C         1.503348        -0.115419         0.164699
 C         1.941162         0.640415        -1.042773
 C         3.344173         0.489527        -0.313100
 C         4.357701        -0.248277        -1.200265
 O         3.580806        -1.444378        -0.941077
 C         2.862308        -0.891060         0.216475
 C         3.104055         1.404876         0.860823
 O         1.814506         0.789233         1.335152
 H         0.120206        -0.578141         1.667636
 H        -0.610646        -0.138900         0.097591
 H         0.082164        -1.809521         0.173609
 H         2.037203         0.097735        -1.924470
 H         1.451446         1.598201        -1.112154
 H         4.396375         0.049032        -2.257213
 H         5.437363        -0.520387        -0.887866
 H         3.000025        -1.320623         1.191333
 H         3.896461         1.316528         1.684476
 H         3.131485         2.472025         0.512411
