19
Iteration:   541charge 0 multiplicity 1
 C         0.234574        -0.883086         0.732590
 C         1.446532        -0.219382         0.048591
 C         2.099099        -0.422365        -1.305505
 C         3.326614         0.400632        -0.578844
 C         4.622515        -0.397949        -0.495711
 O         3.921991        -1.400574         0.468942
 C         2.864774        -0.322501         0.712820
 C         2.711872         1.774805        -0.349100
 O         1.483992         1.318122         0.287382
 H         0.511972        -1.319918         1.715469
 H        -0.560586        -0.052064         0.805950
 H        -0.192225        -1.734367         0.140985
 H         2.375191        -1.481051        -1.469091
 H         1.634764         0.229882        -2.103567
 H         4.923716        -0.952277        -1.405266
 H         5.524594         0.133339        -0.153046
 H         3.034286         0.013561         1.777049
 H         3.340749         2.321190         0.314159
 H         2.394301         2.196764        -1.326624
