19
Iteration:  3796
 C         0.063423        -0.737043         0.388765
 C         1.525305        -0.129577         0.288152
 C         2.022696         1.017237        -0.452679
 C         3.452432         0.461576        -0.137530
 C         4.214034        -0.057496        -1.435018
 O         3.184271        -1.008823        -1.628361
 C         2.770962        -0.912163        -0.246971
 C         3.391342         0.994358         1.288474
 O         2.119986         0.298298         1.604514
 H         0.027032        -1.758343        -0.148806
 H        -0.044071        -0.946009         1.555981
 H        -0.702994        -0.219606        -0.296591
 H         1.800437         0.876261        -1.405645
 H         1.798573         2.058800        -0.203137
 H         4.350238         0.565060        -2.328849
 H         5.264639        -0.488995        -1.173920
 H         3.035556        -1.873102         0.152164
 H         4.180779         0.606353         2.065542
 H         3.291981         2.082730         1.400902
