19
Iteration:  1418
 C         0.215503        -0.666398         0.568633
 C         1.509076        -0.232843         0.082526
 C         2.002165         0.145353        -1.245248
 C         3.338566         0.558781        -0.399582
 C         4.495067        -0.414493        -0.917650
 O         3.774831        -1.580917        -0.388285
 C         2.958294        -0.687585         0.535869
 C         2.842615         1.702341         0.385069
 O         1.609539         1.040676         0.924120
 H        -0.019400        -1.726058         0.192634
 H         0.205865        -0.580458         1.707291
 H        -0.570919         0.065322         0.328192
 H         2.090761        -0.564583        -2.140410
 H         1.394601         0.960854        -1.523036
 H         4.598292        -0.458116        -2.024535
 H         5.492337        -0.352569        -0.379423
 H         3.290864        -0.961379         1.535559
 H         3.481784         1.950282         1.266277
 H         2.706638         2.628245        -0.083389
