19
Iteration:  4315
 C         0.122587        -0.657236         0.575587
 C         1.476815        -0.122596         0.252379
 C         2.032029         1.058206        -0.714268
 C         3.356171         0.567858        -0.205809
 C         4.252198         0.128756        -1.357041
 O         3.329996        -1.132886        -1.576643
 C         2.759089        -0.914355        -0.251335
 C         3.370825         0.801104         1.298922
 O         2.051239         0.227011         1.565416
 H        -0.492889        -0.820721        -0.318242
 H         0.170540        -1.456596         1.227549
 H        -0.290818         0.161269         1.032030
 H         1.649383         0.712570        -1.823804
 H         1.671835         2.074264        -0.349101
 H         4.370616         0.568608        -2.326692
 H         5.188816        -0.313362        -1.014995
 H         2.957342        -1.707434         0.508863
 H         4.123870         0.313779         1.848976
 H         3.271450         1.792345         1.761880
