19
Iteration:  2567
 C         0.230422        -0.786963         0.492352
 C         1.497167        -0.140569         0.213708
 C         1.901085         0.775721        -0.962283
 C         3.298479         0.449238        -0.304398
 C         4.387632        -0.250690        -1.115240
 O         3.489133        -1.421476        -1.079388
 C         2.783073        -0.915307         0.081553
 C         3.202812         1.373155         0.900596
 O         1.945803         0.782226         1.363767
 H         0.486792        -1.635697         1.090258
 H        -0.510658        -0.170883         1.024531
 H        -0.213053        -1.091369        -0.450329
 H         1.727364         0.374398        -2.042590
 H         1.376545         1.786110        -0.788375
 H         4.365825         0.332268        -2.040273
 H         5.384892        -0.505754        -0.749411
 H         3.067606        -1.499844         1.054991
 H         3.967914         1.313499         1.701037
 H         2.937221         2.445625         0.535634
