19
Iteration:  3716charge 0 multiplicity 1
 C         0.094388        -0.565437         0.475310
 C         1.490456        -0.133213         0.229180
 C         1.931821         1.052696        -0.574240
 C         3.357834         0.515336        -0.243255
 C         4.243914         0.062466        -1.377201
 O         3.375985        -1.152294        -1.571211
 C         2.779935        -0.997019        -0.234751
 C         3.322289         0.930366         1.270293
 O         2.117413         0.216593         1.605982
 H        -0.553242        -0.389637        -0.322270
 H         0.092064        -1.665484         0.672711
 H        -0.265252        -0.180444         1.416450
 H         1.612852         0.856831        -1.634703
 H         1.662596         2.012661        -0.138602
 H         4.269724         0.698304        -2.323721
 H         5.227123        -0.318042        -1.026654
 H         3.197300        -1.796666         0.397131
 H         4.214178         0.505828         1.959071
 H         3.158819         2.033615         1.449628
