19
Iteration:   582
 C         0.228450        -0.903295         0.665199
 C         1.522574        -0.244748         0.244160
 C         2.086499        -0.382969        -1.229335
 C         3.339958         0.394471        -0.561965
 C         4.643444        -0.429484        -0.525992
 O         3.802081        -1.410398         0.323723
 C         2.961713        -0.258506         0.757710
 C         2.747157         1.787731        -0.315265
 O         1.429947         1.290338         0.203983
 H        -0.315997        -0.250785         1.395075
 H        -0.456828        -1.146277        -0.122689
 H         0.474931        -1.830057         1.238031
 H         2.428876        -1.462859        -1.448545
 H         1.507196         0.290220        -1.931637
 H         4.946789        -0.870411        -1.478310
 H         5.555218        -0.133220         0.033558
 H         3.184281         0.235765         1.727240
 H         3.334309         2.317607         0.514267
 H         2.422262         2.408253        -1.215453
