19
Iteration:  4376charge 0 multiplicity 1
 C         0.182987        -0.664954         0.365448
 C         1.536512        -0.083324         0.268982
 C         1.935096         0.983904        -0.670143
 C         3.405129         0.515206        -0.180764
 C         4.177951         0.004832        -1.409017
 O         3.194226        -1.053123        -1.545487
 C         2.818530        -0.888063        -0.133780
 C         3.427523         0.840977         1.332526
 O         2.053092         0.287119         1.599918
 H        -0.446822        -0.452202        -0.522384
 H         0.210275        -1.791429         0.479611
 H        -0.324111        -0.283680         1.372838
 H         1.758054         0.744985        -1.597612
 H         1.525745         1.975792        -0.517898
 H         4.324826         0.576424        -2.338915
 H         5.130361        -0.397654        -1.013524
 H         3.533435        -1.595040         0.549619
 H         4.271883         0.246278         1.847404
 H         3.403618         1.906080         1.545203
