19
Iteration:  2366
 C         0.044365        -0.677864         0.448111
 C         1.511661        -0.223600         0.269102
 C         1.859319         0.463424        -1.064127
 C         3.317974         0.571784        -0.403407
 C         4.370870        -0.186173        -1.149487
 O         3.505892        -1.386330        -1.017184
 C         2.880829        -0.809822         0.181341
 C         3.269424         1.352872         0.945881
 O         1.932096         0.809567         1.384987
 H        -0.567136        -0.280421        -0.288264
 H         0.090492        -1.699702         0.329649
 H        -0.267536        -0.429053         1.433402
 H         1.926553        -0.259242        -1.962097
 H         1.204246         1.372924        -1.360130
 H         4.649167         0.083822        -2.143702
 H         5.211869        -0.272138        -0.504839
 H         3.467207        -1.279678         1.062850
 H         4.053440         0.824787         1.433964
 H         3.324568         2.461582         0.950265
