19
Iteration:  2492charge 0 multiplicity 1
 C         0.021254        -0.781108         0.530524
 C         1.442304        -0.185832         0.259989
 C         1.987778         0.798171        -0.915774
 C         3.382427         0.492523        -0.286415
 C         4.346284        -0.210819        -1.164829
 O         3.581693        -1.471077        -1.083479
 C         2.879720        -0.941241         0.104059
 C         3.118557         1.447472         0.804549
 O         1.961362         0.718555         1.367149
 H        -0.060176        -1.889481         0.329417
 H        -0.140135        -0.443757         1.705727
 H        -0.667967        -0.294573        -0.270772
 H         1.822352         0.429394        -1.963811
 H         1.831660         1.835588        -0.931506
 H         4.298343         0.031802        -2.275874
 H         5.383878        -0.492792        -0.921170
 H         3.089438        -1.575773         1.053834
 H         3.737348         1.609707         1.744166
 H         3.037407         2.570887         0.569087
