19
Iteration:  1339
 C         0.201829        -0.807509         0.555262
 C         1.497606        -0.215028         0.172724
 C         2.036064         0.186950        -1.249684
 C         3.361997         0.527739        -0.420505
 C         4.522674        -0.509668        -0.887205
 O         3.687754        -1.541388        -0.302014
 C         2.945439        -0.637565         0.536121
 C         2.955484         1.806406         0.343534
 O         1.554629         1.085315         0.834058
 H        -0.754407        -0.220848         0.688703
 H         0.055012        -1.664273        -0.143971
 H         0.329863        -1.245526         1.576089
 H         2.064541        -0.630923        -1.894971
 H         1.444381         1.050675        -1.716896
 H         4.675917        -0.718611        -1.934898
 H         5.566221        -0.301593        -0.519051
 H         3.387562        -0.699534         1.561835
 H         3.648831         2.040421         1.127791
 H         2.602431         2.657191        -0.289444
