19
Iteration:  3236
 C         0.080756        -0.626339         0.544666
 C         1.482790        -0.148013         0.284313
 C         1.929142         0.789125        -0.861776
 C         3.432596         0.504431        -0.226743
 C         4.297822        -0.098775        -1.329299
 O         3.363617        -1.137776        -1.442559
 C         2.929732        -0.910620        -0.038699
 C         3.319806         1.053232         1.154067
 O         1.927869         0.505630         1.535244
 H        -0.121473        -0.624472         1.613047
 H        -0.588491        -0.148279        -0.054925
 H         0.073057        -1.684120         0.180841
 H         1.802326         0.300017        -1.973030
 H         1.356943         1.707771        -0.690243
 H         4.414632         0.523301        -2.245843
 H         5.242084        -0.636505        -1.043539
 H         3.461523        -1.511362         0.711738
 H         3.975058         0.527801         1.871250
 H         3.202576         2.084887         1.384588
