19
Iteration:  2114
 C         0.207207        -0.825984         0.497874
 C         1.453870        -0.208181         0.145274
 C         1.980556         0.626678        -1.060396
 C         3.324653         0.488815        -0.340394
 C         4.319766        -0.258308        -1.126296
 O         3.640663        -1.549606        -0.853068
 C         2.876373        -0.869993         0.240219
 C         3.124356         1.446169         0.835209
 O         1.784754         1.014833         1.227563
 H        -0.515532        -0.874582        -0.282461
 H         0.397220        -1.788969         1.073048
 H        -0.229826        -0.116980         1.262167
 H         2.146423         0.003944        -1.984489
 H         1.478258         1.606915        -1.243910
 H         4.200531        -0.028143        -2.202318
 H         5.400384        -0.351556        -0.762804
 H         3.272202        -1.254075         1.215396
 H         3.771745         1.199651         1.596367
 H         2.985659         2.549552         0.601970
