19
Iteration:  2318
 C         0.123953        -0.805027         0.596549
 C         1.469666        -0.157372         0.102633
 C         1.994598         0.748259        -1.021449
 C         3.392109         0.534380        -0.314814
 C         4.363816        -0.289718        -1.204527
 O         3.557562        -1.500686        -0.964225
 C         2.873308        -0.869605         0.179045
 C         3.122672         1.457838         0.935697
 O         1.847304         0.753164         1.285776
 H        -0.507937         0.107880         0.778839
 H        -0.429561        -1.493956        -0.157571
 H         0.371429        -1.273259         1.583416
 H         1.956200         0.395023        -2.083319
 H         1.711938         1.805150        -1.121920
 H         4.126109         0.064528        -2.269551
 H         5.476445        -0.446591        -1.016036
 H         3.031844        -1.369225         1.084560
 H         3.948703         1.466862         1.817505
 H         2.912506         2.450117         0.524558
