19
Iteration:  2870charge 0 multiplicity 1
 C         0.176117        -0.807986         0.441790
 C         1.482894        -0.131423         0.234605
 C         1.921776         0.888804        -0.840349
 C         3.380798         0.542052        -0.293852
 C         4.328619        -0.158105        -1.246066
 O         3.452368        -1.372745        -1.200515
 C         2.761164        -0.965989        -0.009291
 C         3.262523         1.226544         1.031862
 O         1.958415         0.699562         1.458016
 H         0.532858        -1.759319         0.930321
 H        -0.479832        -0.210708         1.127778
 H        -0.395220        -1.124159        -0.448844
 H         1.692419         0.471362        -1.756056
 H         1.596384         1.837238        -0.803213
 H         4.331695         0.190882        -2.260721
 H         5.330021        -0.374049        -0.914136
 H         3.091236        -1.594440         0.851305
 H         4.027669         1.018396         1.844229
 H         3.089060         2.367521         1.043549
