19
Iteration:  1012
 C         0.182791        -0.891272         0.653431
 C         1.445866        -0.176967         0.222766
 C         2.040058        -0.035782        -1.208917
 C         3.296764         0.392107        -0.453207
 C         4.574708        -0.436620        -0.737161
 O         3.902527        -1.564865        -0.136307
 C         2.871166        -0.580310         0.645360
 C         2.852607         1.761071         0.092812
 O         1.539169         1.388660         0.527107
 H         0.192800        -1.790260         0.059961
 H         0.103950        -1.066254         1.685303
 H        -0.675973        -0.262292         0.320598
 H         2.196855        -1.091701        -1.639059
 H         1.383933         0.502093        -1.814685
 H         4.918892        -0.549626        -1.803850
 H         5.481035        -0.182157        -0.134616
 H         3.241977        -0.668597         1.641236
 H         3.411521         2.184346         1.042825
 H         2.665600         2.551370        -0.624698
