19
Iteration:  1571
 C         0.126246        -0.773368         0.579302
 C         1.475097        -0.196937         0.162265
 C         1.871993         0.249506        -1.240269
 C         3.313263         0.483103        -0.437288
 C         4.518745        -0.394362        -0.960766
 O         3.773468        -1.552401        -0.522927
 C         2.919806        -0.637043         0.421258
 C         3.008922         1.660820         0.458164
 O         1.711678         1.035179         1.051202
 H        -0.711093        -0.200149         0.110908
 H         0.023855        -1.817169         0.268831
 H         0.076373        -0.601264         1.666604
 H         2.141389        -0.541942        -1.982780
 H         1.266004         1.107547        -1.575320
 H         4.943006        -0.485783        -1.950965
 H         5.376530        -0.322011        -0.301212
 H         3.187836        -0.766459         1.488059
 H         3.681650         1.641267         1.339334
 H         2.601509         2.742233         0.256850
