19
Iteration:    53
 C         0.285260        -0.766121         0.693274
 C         1.483159        -0.208129         0.126784
 C         2.243936        -0.715875        -1.119005
 C         3.300266         0.264497        -0.680431
 C         4.705752        -0.358312        -0.350255
 O         3.978108        -1.149773         0.845609
 C         2.852620        -0.109259         0.787335
 C         2.585284         1.631901        -0.735855
 O         1.324927         1.228057        -0.051994
 H        -0.641455        -0.309294         0.194732
 H         0.069291        -1.841677         0.525469
 H         0.299848        -0.518240         1.792706
 H         2.567376        -1.742630        -0.976020
 H         1.825910        -0.569482        -2.157785
 H         5.162373        -1.074361        -1.152775
 H         5.389617         0.356664         0.102153
 H         2.878333         0.491946         1.676135
 H         3.061601         2.348065        -0.100246
 H         2.217072         1.944010        -1.687967
