19
Iteration:  4619
 C         0.034941        -0.583015         0.506464
 C         1.481642        -0.161018         0.300192
 C         1.883742         1.015807        -0.655556
 C         3.354349         0.578652        -0.193521
 C         4.238570         0.105226        -1.450348
 O         3.385689        -1.110571        -1.500385
 C         2.815633        -0.926468        -0.214257
 C         3.491851         0.743177         1.252732
 O         2.018832         0.273779         1.577497
 H        -0.414912        -0.899249        -0.456801
 H         0.102551        -1.407071         1.194932
 H        -0.536781         0.215275         0.895119
 H         1.691885         0.658125        -1.630824
 H         1.677922         2.122046        -0.353638
 H         4.305614         0.682156        -2.348163
 H         5.260304        -0.229094        -1.197178
 H         3.074174        -1.612682         0.453486
 H         4.231297         0.038305         1.682704
 H         3.680508         1.725347         1.532924
