19
Iteration:   173
 C         0.160726        -0.751745         0.711712
 C         1.458380        -0.241082         0.135482
 C         2.217375        -0.557416        -1.095741
 C         3.349535         0.357526        -0.545496
 C         4.668185        -0.429290        -0.464831
 O         4.044406        -1.171708         0.762633
 C         2.962581        -0.251004         0.819984
 C         2.597835         1.672719        -0.701491
 O         1.307860         1.204887        -0.028095
 H         0.061821        -0.585494         1.800332
 H        -0.722444        -0.303846         0.201775
 H         0.074187        -1.849581         0.515102
 H         2.563041        -1.593614        -1.200803
 H         1.753882        -0.255886        -2.058400
 H         4.843109        -1.134551        -1.347605
 H         5.596820         0.007400        -0.130545
 H         2.834387         0.193724         1.811653
 H         3.013148         2.628320        -0.201291
 H         2.526960         1.967521        -1.877754
