19
Iteration:  4909charge 0 multiplicity 1
 C         0.125969        -0.518416         0.469643
 C         1.547189        -0.196789         0.238402
 C         1.939449         0.928976        -0.619553
 C         3.382783         0.512331        -0.239296
 C         4.259400         0.019686        -1.400075
 O         3.291432        -1.050823        -1.593773
 C         2.846542        -0.961154        -0.179377
 C         3.275726         0.871626         1.278491
 O         2.076646         0.250268         1.643299
 H        -0.320953        -0.777233        -0.459919
 H         0.079238        -1.381519         1.190638
 H        -0.199771         0.292688         1.081360
 H         1.596786         0.866942        -1.723424
 H         1.632022         1.938922        -0.277766
 H         4.261040         0.743163        -2.255532
 H         5.319700        -0.272847        -0.982960
 H         3.092491        -1.785012         0.379682
 H         4.061785         0.517471         1.880070
 H         3.219127         1.958843         1.348138
