19
Iteration:  3268charge 0 multiplicity 1
 C         0.057896        -0.644894         0.519528
 C         1.500808        -0.186041         0.198815
 C         1.948621         0.876454        -0.728143
 C         3.358767         0.455914        -0.203795
 C         4.228855        -0.008336        -1.256076
 O         3.447175        -1.262840        -1.469404
 C         2.810993        -1.022479        -0.083674
 C         3.337331         1.164606         1.110804
 O         2.031921         0.495417         1.519271
 H        -0.233869        -0.432960         1.533395
 H        -0.680542        -0.245695        -0.082284
 H         0.086771        -1.718837         0.498346
 H         1.819014         0.726612        -1.968438
 H         1.518452         1.865899        -0.426676
 H         4.406752         0.672050        -2.166379
 H         5.300631        -0.297679        -0.975392
 H         3.142693        -1.772119         0.637486
 H         4.048545         0.901988         1.853733
 H         3.165033         2.126920         1.161183
