19
Iteration:  4087charge 0 multiplicity 1
 C         0.172929        -0.712369         0.381586
 C         1.530880        -0.132412         0.279067
 C         1.921354         1.072949        -0.664003
 C         3.402429         0.523531        -0.174443
 C         4.195655         0.077957        -1.409900
 O         3.222204        -1.113753        -1.544032
 C         2.804113        -0.890053        -0.164074
 C         3.475565         0.724558         1.306613
 O         2.037776         0.370673         1.637506
 H         0.116865        -1.447183        -0.581526
 H        -0.081248        -1.393395         1.301474
 H        -0.643653         0.072764         0.337520
 H         1.620382         1.115618        -1.731582
 H         1.547060         1.922656        -0.287054
 H         4.162371         0.722425        -2.384474
 H         5.273602        -0.268732        -1.263765
 H         3.103485        -1.566242         0.594176
 H         4.286271         0.147220         1.759544
 H         3.572360         1.789828         1.659585
