19
Iteration:  1274charge 0 multiplicity 1
 C         0.152673        -0.768851         0.570485
 C         1.529279        -0.215623         0.227432
 C         1.942805         0.040576        -1.247286
 C         3.256410         0.469251        -0.553912
 C         4.567305        -0.358844        -0.748069
 O         3.812224        -1.595225        -0.288946
 C         2.935795        -0.583269         0.465663
 C         2.932211         1.678530         0.307718
 O         1.593659         1.171878         0.807955
 H         0.049920        -1.185645         1.636923
 H        -0.450403         0.180390         0.534998
 H        -0.175975        -1.448735        -0.271647
 H         2.084311        -0.810007        -1.823072
 H         1.273666         0.821731        -1.740370
 H         4.867097        -0.674169        -1.755890
 H         5.552526        -0.199876        -0.137356
 H         3.242068        -0.395699         1.518261
 H         3.691097         1.849821         1.175563
 H         2.728946         2.676828        -0.139106
