19
Iteration:  4432
 C         0.161898        -0.663755         0.532500
 C         1.515706        -0.110733         0.280942
 C         1.898770         1.059733        -0.600829
 C         3.395859         0.527755        -0.210478
 C         4.321284        -0.005466        -1.368057
 O         3.286610        -1.093630        -1.602854
 C         2.729810        -0.917371        -0.246931
 C         3.375416         0.824541         1.273758
 O         2.031435         0.307519         1.571782
 H        -0.145083        -1.158487        -0.440860
 H         0.043113        -1.371353         1.357539
 H        -0.647141         0.177154         0.601565
 H         1.677463         0.946912        -1.514717
 H         1.586662         1.986548        -0.109513
 H         4.386637         0.631887        -2.232004
 H         5.307566        -0.377819        -1.105708
 H         3.288032        -1.786734         0.324961
 H         4.288351         0.277976         1.634206
 H         3.491663         1.849641         1.601596
