19
Iteration:  3508
 C         0.061705        -0.829174         0.419757
 C         1.512705        -0.121979         0.246259
 C         1.898044         1.048222        -0.667935
 C         3.380924         0.527104        -0.219218
 C         4.235034        -0.104491        -1.307262
 O         3.361320        -1.138930        -1.505004
 C         2.771369        -0.875095        -0.135845
 C         3.438808         0.978790         1.188031
 O         2.070787         0.442660         1.587692
 H         0.205270        -1.904711         0.564323
 H        -0.496016        -0.517363         1.516609
 H        -0.530727        -0.528957        -0.473902
 H         1.753962         1.090844        -1.784371
 H         1.575670         1.923600        -0.249226
 H         4.326442         0.501120        -2.216610
 H         5.135246        -0.509122        -0.909264
 H         3.042360        -1.722682         0.491762
 H         4.161234         0.465750         1.694203
 H         3.486721         2.039414         1.311727
