19
Iteration:   486
 C         0.188153        -0.760840         0.663739
 C         1.458813        -0.169944         0.215683
 C         2.076188        -0.452376        -1.126782
 C         3.245540         0.353869        -0.532802
 C         4.630121        -0.380361        -0.495278
 O         4.067312        -1.351052         0.369788
 C         2.927176        -0.431556         0.821845
 C         2.715892         1.728231        -0.390553
 O         1.378562         1.296998         0.103213
 H         0.162921        -1.787599         0.155110
 H        -0.041683        -1.016756         1.759891
 H        -0.694740        -0.154978         0.276916
 H         2.464286        -1.518032        -1.235373
 H         1.592139        -0.127193        -2.099809
 H         5.002099        -0.938898        -1.408865
 H         5.444570         0.254942        -0.037182
 H         3.269992        -0.142586         1.854339
 H         3.336683         2.455490         0.178380
 H         2.581087         2.393850        -1.309423
