19
Iteration:  4584charge 0 multiplicity 1
 C         0.098325        -0.637768         0.489334
 C         1.590421        -0.143288         0.242713
 C         1.939387         0.982770        -0.597602
 C         3.436958         0.457881        -0.188904
 C         4.259779         0.019339        -1.376427
 O         3.251602        -1.055060        -1.564036
 C         2.766306        -0.931545        -0.257750
 C         3.401593         0.960527         1.308497
 O         2.038784         0.248677         1.584947
 H        -0.496986        -0.561913        -0.352887
 H         0.025831        -1.638990         0.755773
 H        -0.332152        -0.135216         1.351487
 H         1.729887         0.918609        -1.784533
 H         1.632381         2.057652        -0.404864
 H         4.341132         0.601427        -2.317918
 H         5.214931        -0.572524        -1.112901
 H         2.968839        -1.786052         0.247839
 H         4.224858         0.638090         2.012828
 H         3.287172         2.057318         1.386190
