19
Iteration:  3759charge 0 multiplicity 1
 C         0.195880        -0.688582         0.471226
 C         1.522686        -0.128859         0.211826
 C         1.912568         1.026422        -0.657178
 C         3.344261         0.559914        -0.182499
 C         4.196884         0.044403        -1.329507
 O         3.248789        -1.055354        -1.564492
 C         2.791410        -0.879094        -0.246705
 C         3.414905         0.730057         1.334797
 O         2.086333         0.357192         1.570909
 H        -0.015541        -1.423710        -0.201617
 H         0.165491        -1.106147         1.402052
 H        -0.494817         0.050862         0.588307
 H         1.767210         0.666111        -1.809420
 H         1.570642         2.064746        -0.437249
 H         4.280470         0.630129        -2.292164
 H         5.141603        -0.411803        -1.023957
 H         3.036677        -1.688952         0.474128
 H         4.150967        -0.109987         1.702441
 H         3.643593         1.709516         1.821871
