19
Iteration:  2130charge 0 multiplicity 1
 C         0.245838        -0.709502         0.548004
 C         1.609727        -0.148871         0.140316
 C         1.969178         0.543036        -1.142951
 C         3.361568         0.599245        -0.337184
 C         4.294886        -0.298117        -1.162977
 O         3.510188        -1.499890        -0.829740
 C         2.957877        -0.817834         0.281388
 C         3.068073         1.453906         0.900800
 O         1.759604         0.791353         1.171497
 H        -0.209161        -1.197374        -0.391719
 H         0.362020        -1.504822         1.267513
 H        -0.426630         0.035083         0.983245
 H         1.908603         0.040360        -2.075753
 H         1.502390         1.523374        -1.316677
 H         4.417045        -0.191783        -2.244297
 H         5.280271        -0.364059        -0.732462
 H         3.107768        -1.154845         1.317888
 H         3.843071         1.356161         1.787361
 H         2.966068         2.508577         0.769632
