19
Iteration:  3168
 C         0.111893        -0.771202         0.433748
 C         1.547177        -0.154190         0.255398
 C         1.946228         0.879103        -0.789597
 C         3.381044         0.585448        -0.259004
 C         4.245890        -0.156549        -1.352894
 O         3.361924        -1.283924        -1.303879
 C         2.858930        -0.830124        -0.051128
 C         3.302712         1.091060         1.156549
 O         1.979391         0.555222         1.551987
 H         0.082072        -1.788942         0.674093
 H        -0.551005        -0.158135         1.032967
 H        -0.347168        -0.653092        -0.466055
 H         1.930363         0.528088        -1.998653
 H         1.607739         1.969011        -0.605882
 H         4.275525         0.445361        -2.340017
 H         5.279811        -0.467623        -1.032492
 H         3.225565        -1.520347         0.720818
 H         4.072495         0.639964         1.706877
 H         3.390516         2.118115         1.185396
