19
Iteration:   969
 C         0.256813        -0.731282         0.619573
 C         1.539875        -0.227439         0.133679
 C         2.044740        -0.067821        -1.311140
 C         3.303861         0.470824        -0.588565
 C         4.499886        -0.446328        -0.696530
 O         3.853509        -1.522518         0.036419
 C         2.925212        -0.537204         0.589766
 C         2.711764         1.726873         0.034658
 O         1.573685         1.180585         0.707399
 H        -0.461417        -0.538648        -0.150980
 H         0.217041        -1.730319         0.878950
 H        -0.069105        -0.187239         1.525782
 H         2.347215        -1.097453        -1.730097
 H         1.754951         0.577454        -2.070226
 H         4.831762        -0.762490        -1.739180
 H         5.428464        -0.035214        -0.233151
 H         2.961851        -0.309413         1.652747
 H         3.458314         2.010298         0.773261
 H         2.464957         2.478888        -0.610380
