19
Iteration:  4655
 C         0.141597        -0.639355         0.441102
 C         1.486152        -0.114827         0.259613
 C         1.984784         1.094246        -0.555612
 C         3.344437         0.525395        -0.253950
 C         4.222957         0.047222        -1.369414
 O         3.277129        -1.103638        -1.562067
 C         2.812650        -0.965582        -0.216337
 C         3.450834         0.880078         1.224988
 O         2.045969         0.216473         1.631472
 H        -0.053713        -1.506297        -0.329055
 H        -0.049209        -1.096535         1.518426
 H        -0.659857         0.182623         0.434387
 H         1.726023         1.051027        -1.600723
 H         1.711718         2.124431        -0.340396
 H         4.340697         0.651946        -2.259805
 H         5.117479        -0.386159        -1.084057
 H         3.141609        -1.879103         0.401900
 H         4.126771         0.378546         1.863776
 H         3.263264         1.919076         1.472937
