19
Iteration:  3742charge 0 multiplicity 1
 C         0.056553        -0.685470         0.523369
 C         1.442266        -0.098205         0.304180
 C         1.931704         1.068684        -0.651426
 C         3.394114         0.551497        -0.242485
 C         4.261191         0.081311        -1.371865
 O         3.382687        -1.107457        -1.594658
 C         2.736459        -0.910066        -0.170788
 C         3.543014         0.750782         1.242920
 O         1.990377         0.311207         1.564341
 H        -0.363480        -1.084435        -0.516673
 H         0.119539        -1.663926         1.292839
 H        -0.773594         0.043682         1.020336
 H         1.798151         0.881634        -1.653917
 H         1.542962         2.016453        -0.260771
 H         4.265806         0.710313        -2.252116
 H         5.281195        -0.234072        -1.043087
 H         3.147654        -1.733751         0.420189
 H         4.204701         0.120626         1.792994
 H         3.579497         1.757879         1.627023
