19
Iteration:  3514
 C         0.088146        -0.791941         0.465737
 C         1.503367        -0.101668         0.236881
 C         1.876262         1.009262        -0.689939
 C         3.385060         0.563085        -0.233816
 C         4.246784        -0.063118        -1.323746
 O         3.329424        -1.171300        -1.472091
 C         2.776822        -0.885080        -0.129157
 C         3.433382         0.941893         1.229421
 O         2.079831         0.407967         1.517062
 H         0.227328        -1.896324         0.559939
 H        -0.405888        -0.371157         1.201918
 H        -0.550677        -0.670264        -0.395939
 H         1.777796         1.110452        -1.758465
 H         1.546860         2.095005        -0.287406
 H         4.316913         0.658372        -2.174835
 H         5.302230        -0.359238        -0.952039
 H         2.970960        -1.675562         0.638986
 H         4.264904         0.345054         1.862064
 H         3.438617         2.081549         1.473243
