19
Iteration:  4613
 C         0.024422        -0.570950         0.499093
 C         1.532717        -0.097443         0.288005
 C         1.932084         0.971235        -0.689063
 C         3.343361         0.536878        -0.250873
 C         4.196871         0.117564        -1.411143
 O         3.372778        -1.100752        -1.526596
 C         2.808449        -0.906249        -0.187693
 C         3.465760         0.756346         1.281655
 O         2.012900         0.255414         1.600958
 H        -0.447363        -0.887785        -0.483561
 H         0.180383        -1.517624         1.147343
 H        -0.572980         0.164980         1.143996
 H         1.693732         0.670171        -1.760784
 H         1.802394         1.950738        -0.342021
 H         4.291148         0.680363        -2.389197
 H         5.230207        -0.170583        -1.117897
 H         3.268804        -1.769139         0.580555
 H         4.245186         0.052327         1.571158
 H         3.645179         1.838045         1.653992
