19
Iteration:   181
 C         0.150552        -0.789304         0.716687
 C         1.475363        -0.226323         0.169245
 C         2.209188        -0.664537        -1.101518
 C         3.300584         0.385727        -0.500196
 C         4.659302        -0.450375        -0.423269
 O         4.079765        -1.133008         0.668682
 C         2.904652        -0.293454         0.809291
 C         2.649819         1.713745        -0.663364
 O         1.308001         1.293509        -0.073362
 H        -0.208957        -0.378723         1.717071
 H        -0.585674        -0.556929        -0.030153
 H         0.312102        -1.864767         0.825352
 H         2.534598        -1.711415        -1.066619
 H         1.820534        -0.308278        -2.107489
 H         4.815109        -1.151334        -1.279900
 H         5.641729        -0.046905        -0.172834
 H         2.968108         0.082110         1.919526
 H         3.089339         2.651031        -0.081009
 H         2.370916         1.818503        -1.756347
