19
Iteration:  1421charge 0 multiplicity 1
 C         0.225682        -0.671146         0.576942
 C         1.540180        -0.222980         0.096386
 C         1.984133         0.133767        -1.257511
 C         3.345836         0.560879        -0.387590
 C         4.500827        -0.430851        -0.913611
 O         3.771542        -1.573459        -0.398283
 C         2.935481        -0.687769         0.525424
 C         2.854274         1.704080         0.397713
 O         1.605020         1.031818         0.918308
 H         0.053080        -1.710723         0.275373
 H         0.110212        -0.472500         1.647639
 H        -0.523550         0.092729         0.194997
 H         2.090730        -0.612571        -2.050115
 H         1.351269         0.969914        -1.567259
 H         4.560520        -0.436441        -2.058684
 H         5.471604        -0.223704        -0.382504
 H         3.250709        -0.961253         1.507264
 H         3.499660         1.926205         1.371632
 H         2.631094         2.640609        -0.143493
