19
Iteration:  3188
 C         0.158202        -0.761331         0.385750
 C         1.474843        -0.061451         0.271280
 C         1.873646         1.028304        -0.713364
 C         3.326890         0.480685        -0.296203
 C         4.283864        -0.113529        -1.320061
 O         3.414913        -1.358186        -1.352432
 C         2.808237        -0.912027         0.016457
 C         3.375933         1.128414         1.113976
 O         2.004890         0.505022         1.498811
 H         0.492639        -1.492934         1.087364
 H        -0.775490        -0.206904         0.740625
 H        -0.114399        -1.214109        -0.531869
 H         1.574803         0.749172        -1.793026
 H         1.798776         2.152421        -0.446956
 H         4.160218         0.277187        -2.373534
 H         5.355456        -0.222372        -0.909616
 H         3.026231        -1.612768         0.840232
 H         4.039192         0.782067         1.856961
 H         3.261982         2.142233         1.249934
