19
Iteration:  1395charge 0 multiplicity 1
 C         0.103556        -0.889612         0.613913
 C         1.469846        -0.137089         0.201806
 C         2.006397         0.262146        -1.249956
 C         3.321291         0.495230        -0.422197
 C         4.518601        -0.402209        -0.895831
 O         3.814735        -1.592793        -0.341299
 C         2.884153        -0.681137         0.446749
 C         2.953340         1.662130         0.341105
 O         1.655100         1.132960         0.883863
 H        -0.265234        -1.303612        -0.390296
 H        -0.058280        -1.567041         1.516195
 H        -0.487597        -0.030927         0.939038
 H         2.030446        -0.666540        -1.892022
 H         1.600214         1.093723        -1.822178
 H         4.681627        -0.497126        -1.962566
 H         5.391579         0.003607        -0.316248
 H         3.305938        -0.809417         1.465699
 H         3.528340         2.048532         1.171065
 H         2.827644         2.554346        -0.245840
