19
Iteration:  4312charge 0 multiplicity 1
 C         0.145852        -0.652917         0.562184
 C         1.485482        -0.119963         0.251253
 C         1.999336         1.045622        -0.722687
 C         3.350215         0.580102        -0.225089
 C         4.278871         0.121524        -1.386226
 O         3.323181        -1.124435        -1.564364
 C         2.760449        -0.906300        -0.240506
 C         3.371073         0.781915         1.326237
 O         2.031483         0.229067         1.558205
 H        -0.493489        -0.953607        -0.293166
 H         0.176914        -1.457383         1.340455
 H        -0.414519         0.256921         1.094304
 H         1.716276         0.703787        -1.691511
 H         1.719735         2.114863        -0.346989
 H         4.376809         0.587448        -2.367904
 H         5.252977        -0.354378        -1.001473
 H         2.950262        -1.550021         0.466740
 H         4.160135         0.180478         1.915985
 H         3.339861         1.769918         1.746045
