19
Iteration:  4425charge 0 multiplicity 1
 C         0.160012        -0.684342         0.503239
 C         1.491619        -0.094670         0.276988
 C         1.916900         1.103977        -0.543753
 C         3.392087         0.507596        -0.220302
 C         4.292305         0.028704        -1.357161
 O         3.300521        -1.147941        -1.639500
 C         2.782291        -0.907131        -0.220842
 C         3.395283         0.803485         1.253388
 O         2.009577         0.335490         1.573861
 H        -0.197155        -1.227499        -0.419831
 H         0.172799        -1.444373         1.301493
 H        -0.531395         0.029676         0.859413
 H         1.565540         1.030808        -1.745811
 H         1.690125         2.089570        -0.116498
 H         4.363792         0.673660        -2.265813
 H         5.292751        -0.474235        -1.104690
 H         3.012299        -1.730913         0.451907
 H         4.129152         0.239314         1.833161
 H         3.527115         1.896449         1.507191
