19
Iteration:  4198charge 0 multiplicity 1
 C         0.057934        -0.702737         0.492849
 C         1.486077        -0.108049         0.251014
 C         1.897034         1.055420        -0.602873
 C         3.344765         0.472188        -0.171579
 C         4.237787         0.096838        -1.349621
 O         3.367653        -1.151964        -1.560321
 C         2.739615        -0.944129        -0.252045
 C         3.462056         0.826325         1.279933
 O         2.090327         0.355502         1.551465
 H        -0.388436        -0.713571        -0.589861
 H         0.050624        -1.763456         1.045332
 H        -0.639706         0.103292         0.981655
 H         1.861838         0.939063        -1.756034
 H         1.602850         1.950037        -0.212332
 H         4.329305         0.751985        -2.307858
 H         5.269628        -0.196649        -1.015370
 H         3.020859        -1.588352         0.424418
 H         4.261594         0.196985         1.773395
 H         3.754618         1.885285         1.578707
