19
Iteration:   152charge 0 multiplicity 1
 C         0.252847        -0.761338         0.701650
 C         1.564658        -0.254377         0.140536
 C         2.187996        -0.653576        -1.268930
 C         3.262254         0.280093        -0.641019
 C         4.589137        -0.432536        -0.283200
 O         4.008257        -1.169764         0.728895
 C         2.934971        -0.078723         0.820009
 C         2.553220         1.642204        -0.638442
 O         1.381185         1.204703         0.025396
 H         0.314084        -1.221742         1.694034
 H        -0.400654         0.144150         0.768392
 H        -0.269171        -1.525451         0.051305
 H         2.426134        -1.696281        -1.499246
 H         1.700557        -0.183255        -2.127630
 H         5.058563        -1.134004        -1.054847
 H         5.398419         0.227888         0.064591
 H         3.149046         0.636853         1.581982
 H         3.133939         2.492680        -0.215896
 H         2.272452         1.995906        -1.718024
