19
Iteration:  2596
 C         0.156897        -0.781179         0.522663
 C         1.517579        -0.149026         0.215157
 C         2.037933         0.739511        -1.008313
 C         3.372160         0.564156        -0.332881
 C         4.366346        -0.325704        -1.233684
 O         3.409121        -1.418394        -1.125178
 C         2.899882        -0.806724         0.107811
 C         3.106947         1.411104         1.048139
 O         1.894733         0.682036         1.403704
 H         0.177798        -0.994170         1.632362
 H        -0.618868        -0.082734         0.370623
 H        -0.090205        -1.635554        -0.087493
 H         1.993732         0.118073        -1.866178
 H         1.590967         1.711505        -1.258692
 H         4.366607         0.087781        -2.241212
 H         5.431084        -0.598956        -0.890768
 H         3.319332        -1.210742         0.943514
 H         3.798580         1.340607         1.822854
 H         2.830424         2.395716         0.853167
