19
Iteration:  3378charge 0 multiplicity 1
 C         0.154737        -0.633765         0.505461
 C         1.550509        -0.124306         0.190201
 C         1.946440         0.853527        -0.770077
 C         3.416197         0.596705        -0.281001
 C         4.271795        -0.077802        -1.335597
 O         3.283203        -1.168593        -1.432225
 C         2.861790        -0.914043        -0.076071
 C         3.277350         1.055869         1.209764
 O         1.998631         0.354201         1.556557
 H        -0.625112        -0.126896         0.039143
 H         0.116046        -1.634224         0.312708
 H        -0.059943        -0.615721         1.532535
 H         1.771506         0.417075        -1.873851
 H         1.539914         1.872606        -0.530132
 H         4.529357         0.475865        -2.282460
 H         5.234615        -0.487785        -0.860196
 H         3.181309        -1.636200         0.679507
 H         4.038153         0.651512         1.829320
 H         3.172020         2.214119         1.404089
