19
Iteration:   635
 C         0.110389        -0.760207         0.656753
 C         1.437130        -0.209969         0.169273
 C         2.029743        -0.304963        -1.258695
 C         3.278865         0.343492        -0.578266
 C         4.603742        -0.411015        -0.526963
 O         4.059598        -1.370669         0.350853
 C         2.993695        -0.425431         0.678426
 C         2.772725         1.671299        -0.268278
 O         1.448606         1.255280         0.342300
 H        -0.665531        -0.652047        -0.140164
 H         0.205882        -1.788343         0.877750
 H        -0.339975        -0.156422         1.497852
 H         2.369939        -1.349950        -1.622105
 H         1.533331         0.318847        -2.047226
 H         5.017055        -0.937059        -1.415698
 H         5.426267         0.244327        -0.067715
 H         3.006453        -0.162213         1.715540
 H         3.302634         2.451924         0.406355
 H         2.457719         2.229916        -1.185726
