19
Iteration:  4831charge 0 multiplicity 1
 C         0.125454        -0.793200         0.439443
 C         1.491733        -0.117440         0.250365
 C         1.993372         1.132469        -0.600037
 C         3.420556         0.571136        -0.215484
 C         4.220627        -0.026022        -1.411254
 O         3.201614        -1.077714        -1.549684
 C         2.768632        -0.855887        -0.150458
 C         3.392093         0.805646         1.293012
 O         2.075424         0.295708         1.549861
 H        -0.038391        -1.416324        -0.463918
 H         0.344563        -1.382167         1.393073
 H        -0.616712         0.054063         0.553689
 H         1.893243         0.936286        -1.788238
 H         1.788184         2.119365        -0.134804
 H         4.429974         0.692882        -2.290259
 H         5.271080        -0.483052        -1.002171
 H         3.094028        -1.512539         0.574513
 H         4.106350         0.230718         1.831961
 H         3.492344         1.847519         1.606384
