19
Iteration:  3726charge 0 multiplicity 1
 C         0.029671        -0.668146         0.512611
 C         1.475822        -0.154285         0.281703
 C         1.965709         1.070972        -0.568675
 C         3.336322         0.470746        -0.224526
 C         4.265491         0.044819        -1.390377
 O         3.412866        -1.117241        -1.550823
 C         2.770489        -0.914929        -0.271670
 C         3.317372         0.847330         1.204198
 O         2.096725         0.281474         1.620766
 H        -0.547389        -0.526145        -0.321374
 H         0.024230        -1.641468         0.831700
 H        -0.380025         0.003240         1.161390
 H         1.604284         1.055129        -1.697981
 H         1.942263         2.123884        -0.286136
 H         4.305123         0.771881        -2.262387
 H         5.313399        -0.224773        -1.168411
 H         3.120770        -1.623477         0.508328
 H         4.211218         0.288819         1.752799
 H         3.477369         1.953686         1.397502
