19
Iteration:  4305
 C         0.144561        -0.622875         0.563605
 C         1.517215        -0.108156         0.228181
 C         1.902053         1.031843        -0.666241
 C         3.364292         0.575752        -0.258853
 C         4.322332         0.053250        -1.430369
 O         3.316399        -1.088588        -1.540391
 C         2.770329        -0.843347        -0.228775
 C         3.378592         0.728652         1.371316
 O         1.994585         0.240570         1.550260
 H        -0.361019        -1.214752        -0.206793
 H         0.250764        -1.311402         1.365713
 H        -0.483911         0.073242         0.966554
 H         1.832919         0.722566        -1.838279
 H         1.744307         2.115754        -0.543214
 H         4.382875         0.681370        -2.317857
 H         5.282132        -0.292729        -1.092210
 H         3.173892        -1.644997         0.608520
 H         4.035768         0.044352         1.815611
 H         3.524104         1.788451         1.686768
