19
Iteration:  1603charge 0 multiplicity 1
 C         0.199015        -0.743807         0.542663
 C         1.512451        -0.146336         0.196997
 C         1.996829         0.322147        -1.194560
 C         3.312961         0.501377        -0.395289
 C         4.412986        -0.353973        -1.058627
 O         3.756063        -1.613253        -0.500929
 C         2.899426        -0.691305         0.458169
 C         2.895416         1.641301         0.488748
 O         1.710977         0.979895         1.026715
 H        -0.455559        -0.932807        -0.321953
 H         0.416291        -1.680446         1.051276
 H        -0.262993        -0.118112         1.292307
 H         2.043621        -0.506719        -1.976874
 H         1.565626         1.243477        -1.649539
 H         4.647101        -0.511748        -2.102439
 H         5.337016        -0.219840        -0.473880
 H         3.186753        -0.889282         1.538676
 H         3.564198         1.827403         1.262066
 H         2.891835         2.747143         0.079613
