19
Iteration:  4905charge 0 multiplicity 1
 C         0.134657        -0.545765         0.451005
 C         1.560776        -0.189066         0.222879
 C         1.934400         0.910867        -0.616614
 C         3.402545         0.519315        -0.196560
 C         4.238822         0.011735        -1.421202
 O         3.283358        -1.058781        -1.608416
 C         2.831591        -0.933741        -0.186888
 C         3.306233         0.891525         1.291228
 O         2.073093         0.251755         1.656103
 H        -0.434599        -0.790052        -0.464877
 H         0.049157        -1.314854         1.201773
 H        -0.238409         0.349272         0.961597
 H         1.619046         0.771901        -1.769068
 H         1.583957         1.926729        -0.297938
 H         4.323937         0.801341        -2.184462
 H         5.154206        -0.239800        -0.969831
 H         3.079019        -1.916822         0.484555
 H         4.157997         0.501719         1.942328
 H         3.250812         2.012121         1.357665
