19
Iteration:  4877
 C         0.072460        -0.699411         0.389462
 C         1.520058        -0.107591         0.325403
 C         1.997486         0.996802        -0.642520
 C         3.406141         0.505741        -0.197936
 C         4.221173         0.030447        -1.394047
 O         3.192630        -1.028864        -1.536106
 C         2.817952        -0.937916        -0.147588
 C         3.409507         0.829004         1.252560
 O         2.110195         0.314167         1.594985
 H        -0.042832        -1.351337        -0.518004
 H        -0.025351        -1.374137         1.306131
 H        -0.823032         0.035290         0.260130
 H         1.734670         0.755145        -1.666371
 H         1.845062         1.991493        -0.249685
 H         4.241086         0.822786        -2.172283
 H         5.308361        -0.197143        -1.085418
 H         3.116922        -1.712993         0.439082
 H         4.145168         0.334810         1.830453
 H         3.470265         1.901592         1.445713
