19
Iteration:  1795
 C         0.164319        -0.877877         0.591675
 C         1.461521        -0.169286         0.161456
 C         1.914745         0.440039        -1.136969
 C         3.360421         0.563004        -0.433666
 C         4.463501        -0.354841        -1.011546
 O         3.702699        -1.586681        -0.657556
 C         2.875339        -0.767554         0.346709
 C         3.032361         1.586688         0.621003
 O         1.754710         1.081596         1.071905
 H        -0.730971        -0.183178         0.843687
 H        -0.088747        -1.572450        -0.246437
 H         0.255806        -1.486474         1.507371
 H         1.731672        -0.356826        -1.921424
 H         1.531281         1.368649        -1.418172
 H         4.594418        -0.466361        -2.082338
 H         5.336041        -0.255721        -0.417945
 H         3.228928        -1.022300         1.316461
 H         3.790646         1.529559         1.465782
 H         2.923835         2.669637         0.222826
