19
Iteration:   899charge 0 multiplicity 1
 C         0.240252        -0.814781         0.619877
 C         1.494093        -0.191708         0.170397
 C         2.090688        -0.183681        -1.256192
 C         3.354541         0.475865        -0.518422
 C         4.533158        -0.453097        -0.645740
 O         3.818705        -1.515489         0.018180
 C         2.928755        -0.458559         0.634841
 C         2.753182         1.777589         0.011012
 O         1.549308         1.231829         0.522366
 H         0.149720        -0.559849         1.727930
 H        -0.678991        -0.267340         0.149300
 H         0.077852        -1.881933         0.432778
 H         2.105997        -1.235105        -1.468016
 H         1.491699         0.463810        -2.031129
 H         4.671429        -0.824828        -1.650993
 H         5.551338        -0.190207        -0.278983
 H         3.256108        -0.368392         1.664488
 H         3.364519         2.180921         0.976742
 H         2.542989         2.592698        -0.791108
