19
Iteration:   741charge 0 multiplicity 1
 C         0.236332        -0.873538         0.674978
 C         1.481634        -0.177878         0.155827
 C         2.085728        -0.287366        -1.297498
 C         3.283112         0.399745        -0.625949
 C         4.553731        -0.394088        -0.604307
 O         3.809297        -1.465275         0.237464
 C         2.932588        -0.434844         0.656978
 C         2.827840         1.745619        -0.077908
 O         1.508708         1.351015         0.396109
 H         0.026938        -0.626808         1.722143
 H        -0.582188        -0.675199        -0.025756
 H         0.464492        -1.961480         0.636007
 H         2.269663        -1.357291        -1.285304
 H         1.616429        -0.010684        -2.165304
 H         5.015614        -0.778676        -1.515740
 H         5.305662        -0.010947         0.036062
 H         3.228015         0.119087         1.572283
 H         3.343680         2.136089         0.756513
 H         2.563125         2.459906        -0.883921
