19
Iteration:  3225charge 0 multiplicity 1
 C         0.068636        -0.706659         0.492479
 C         1.496232        -0.126025         0.238441
 C         1.917233         0.847673        -0.804446
 C         3.384589         0.583030        -0.249505
 C         4.304295        -0.095212        -1.335161
 O         3.321217        -1.229433        -1.402369
 C         2.914317        -0.864064         0.004705
 C         3.333786         1.074699         1.197817
 O         1.976239         0.463922         1.480328
 H        -0.083365        -0.743569         1.574251
 H        -0.711694        -0.113697         0.177398
 H        -0.020107        -1.739348         0.102646
 H         1.777692         0.429645        -1.931737
 H         1.641359         1.905715        -0.816681
 H         4.488862         0.429166        -2.301709
 H         5.292118        -0.401591        -0.900947
 H         3.348831        -1.554317         0.738430
 H         4.137338         0.533817         1.737644
 H         3.490628         2.117945         1.396224
