19
Iteration:  3284
 C         0.077478        -0.715929         0.520713
 C         1.456126        -0.145996         0.241813
 C         1.903537         0.979125        -0.793712
 C         3.367419         0.522531        -0.270908
 C         4.314748        -0.074149        -1.355765
 O         3.419701        -1.238632        -1.322754
 C         2.823210        -0.873635        -0.079249
 C         3.288700         1.045159         1.137101
 O         2.050636         0.409485         1.522432
 H        -0.170520        -0.319149         1.549304
 H        -0.526014        -0.298347        -0.396064
 H        -0.041055        -1.891247         0.452644
 H         1.722574         0.700165        -1.738334
 H         1.655053         2.002734        -0.543130
 H         4.347612         0.327749        -2.358320
 H         5.317141        -0.359893        -1.081410
 H         3.129162        -1.549849         0.753596
 H         4.185657         0.692052         1.831973
 H         3.236512         2.287690         1.093087
