19
Iteration:  3974charge 0 multiplicity 1
 C         0.071748        -0.718940         0.454150
 C         1.508721        -0.083847         0.261810
 C         1.963974         1.111411        -0.654753
 C         3.408525         0.532305        -0.187971
 C         4.183909         0.080171        -1.438703
 O         3.350727        -1.152333        -1.482548
 C         2.766747        -0.934622        -0.198291
 C         3.482167         0.845527         1.273856
 O         2.010844         0.299614         1.596645
 H        -0.377108        -0.702927        -0.642389
 H         0.263598        -1.794785         0.657104
 H        -0.552801        -0.313108         1.312325
 H         1.823823         0.936696        -1.638584
 H         1.744506         2.116879        -0.299347
 H         4.012774         0.595599        -2.377049
 H         5.280698        -0.318333        -1.459339
 H         2.858685        -1.784748         0.405098
 H         4.205903         0.240040         1.858792
 H         3.480622         1.859934         1.793178
