19
Iteration:  1259charge 0 multiplicity 1
 C         0.142868        -0.720773         0.582496
 C         1.486163        -0.165751         0.155222
 C         1.956121         0.090359        -1.288319
 C         3.315313         0.493416        -0.517279
 C         4.487508        -0.431088        -0.837566
 O         3.850949        -1.559721        -0.209600
 C         3.001787        -0.716686         0.547699
 C         2.911033         1.721603         0.255297
 O         1.568617         1.142959         0.845025
 H         0.373410        -1.560325         1.235680
 H        -0.535574        -0.057258         1.130754
 H        -0.341912        -1.075212        -0.366570
 H         2.058035        -0.913220        -1.902441
 H         1.511965         0.831002        -1.934597
 H         4.914719        -0.515361        -1.844899
 H         5.114678        -0.038112        -0.034833
 H         3.437042        -0.781698         1.596309
 H         3.537827         1.992532         1.057887
 H         2.762774         2.716818        -0.303576
