19
Iteration:   225
 C         0.239126        -0.823139         0.765084
 C         1.539832        -0.235112         0.197159
 C         2.098617        -0.616686        -1.247732
 C         3.339506         0.303655        -0.723766
 C         4.683551        -0.398795        -0.236630
 O         3.950518        -1.186725         0.606641
 C         2.914261        -0.180673         0.758322
 C         2.622320         1.687231        -0.630858
 O         1.376252         1.247400         0.048254
 H        -0.630148        -0.187029         0.396253
 H         0.088500        -1.765539         0.265820
 H         0.106262        -0.911173         1.858405
 H         2.402866        -1.672924        -1.344315
 H         1.452098        -0.332393        -2.142832
 H         5.233678        -1.003315        -1.008577
 H         5.412714         0.280038         0.228655
 H         3.144580         0.573603         1.633329
 H         3.116197         2.251670         0.231519
 H         2.353608         2.158037        -1.603273
