19
Iteration:  4998charge 0 multiplicity 1
 C         0.162380        -0.762079         0.409059
 C         1.552933        -0.165515         0.238769
 C         1.996524         1.063857        -0.647740
 C         3.473934         0.483638        -0.180859
 C         4.234015        -0.047711        -1.482717
 O         3.150307        -1.048593        -1.581357
 C         2.824117        -0.877719        -0.162364
 C         3.365968         0.934151         1.370414
 O         2.051183         0.348114         1.681239
 H        -0.160561        -1.064009        -0.595190
 H        -0.004053        -1.590316         1.053708
 H        -0.565772         0.000593         0.788681
 H         1.760512         0.985686        -1.713998
 H         1.749443         2.079793        -0.231092
 H         4.237117         0.497083        -2.413241
 H         5.191279        -0.672071        -1.285220
 H         3.035817        -1.870629         0.327991
 H         3.998814         0.470189         2.058645
 H         3.368973         2.005901         1.434471
