19
Iteration:  1011charge 0 multiplicity 1
 C         0.173219        -0.893783         0.655901
 C         1.447844        -0.186236         0.228773
 C         2.034225        -0.031063        -1.201973
 C         3.301089         0.402727        -0.449390
 C         4.584698        -0.433848        -0.739740
 O         3.902884        -1.564212        -0.130506
 C         2.873696        -0.578135         0.634557
 C         2.855843         1.751705         0.082256
 O         1.533674         1.388161         0.526133
 H         0.175615        -1.773647         0.015057
 H         0.123801        -1.093767         1.704485
 H        -0.672860        -0.228119         0.341955
 H         2.193799        -1.092654        -1.630229
 H         1.396749         0.510302        -1.840983
 H         4.900211        -0.559313        -1.792275
 H         5.471364        -0.216042        -0.115553
 H         3.227597        -0.703149         1.617212
 H         3.430944         2.192340         1.036428
 H         2.675655         2.598776        -0.623715
