19
Iteration:  1330
 C         0.188506        -0.852782         0.569708
 C         1.479677        -0.121269         0.138330
 C         2.038918         0.204254        -1.233434
 C         3.367611         0.464407        -0.388692
 C         4.527557        -0.481569        -0.933137
 O         3.730980        -1.550700        -0.286329
 C         2.972604        -0.690217         0.527244
 C         2.838890         1.774604         0.345290
 O         1.610210         1.145752         0.818245
 H        -0.553174        -0.046380         0.961315
 H        -0.297528        -1.537864        -0.206029
 H         0.567264        -1.441121         1.442447
 H         2.166479        -0.645374        -1.910051
 H         1.541576         1.073393        -1.703491
 H         4.559759        -0.796176        -1.999167
 H         5.518258        -0.482614        -0.344095
 H         3.195185        -0.756407         1.604193
 H         3.396505         2.170894         1.313183
 H         2.636560         2.559346        -0.403956
