19
Iteration:   385
 C         0.268551        -0.850009         0.685155
 C         1.524594        -0.185628         0.195716
 C         2.126990        -0.567509        -1.132197
 C         3.247888         0.303619        -0.585685
 C         4.603240        -0.344770        -0.451752
 O         3.933161        -1.356235         0.465799
 C         2.907786        -0.254039         0.815746
 C         2.713149         1.786012        -0.441417
 O         1.410725         1.294855         0.005106
 H        -0.238581        -0.240742         1.513138
 H        -0.453266        -1.013221        -0.076267
 H         0.468732        -1.804945         1.225601
 H         2.466568        -1.606885        -1.189752
 H         1.566915        -0.295972        -2.047306
 H         4.985173        -0.841242        -1.302586
 H         5.338369         0.381452        -0.034932
 H         3.087448         0.146467         1.793282
 H         3.161413         2.257586         0.431354
 H         2.562322         2.544243        -1.307729
