19
Iteration:  4614charge 0 multiplicity 1
 C         0.021005        -0.574576         0.497651
 C         1.528884        -0.106955         0.291268
 C         1.923169         0.979714        -0.682941
 C         3.344483         0.544924        -0.240662
 C         4.199541         0.117539        -1.418484
 O         3.375301        -1.102045        -1.520529
 C         2.808829        -0.908962        -0.193500
 C         3.470275         0.752507         1.278395
 O         2.010733         0.257244         1.597077
 H        -0.424199        -0.882736        -0.447261
 H         0.180336        -1.481045         1.141407
 H        -0.573468         0.177716         1.116534
 H         1.683160         0.637896        -1.785109
 H         1.805393         1.967263        -0.329982
 H         4.309019         0.688519        -2.407228
 H         5.267327        -0.190205        -1.123327
 H         3.247470        -1.759834         0.574056
 H         4.260204         0.033471         1.578084
 H         3.664902         1.849972         1.630916
