19
Iteration:  4231
 C         0.186202        -0.660555         0.346241
 C         1.563818        -0.133608         0.261879
 C         2.048583         0.997587        -0.589637
 C         3.431524         0.562366        -0.180170
 C         4.201763        -0.006570        -1.479267
 O         3.124500        -1.063769        -1.533342
 C         2.850213        -0.864075        -0.165942
 C         3.316655         0.923346         1.358173
 O         2.072650         0.206689         1.636493
 H        -0.104464        -1.374601        -0.518456
 H        -0.134708        -1.312431         1.278698
 H        -0.652299         0.154078         0.436666
 H         1.918539         0.864985        -1.711468
 H         1.656583         1.917550        -0.377800
 H         4.343574         0.455407        -2.532395
 H         5.122731        -0.526930        -1.135271
 H         3.249233        -1.530349         0.426216
 H         4.165430         0.365295         1.849163
 H         3.248243         2.052498         1.577475
