19
Iteration:  4428
 C         0.165895        -0.676315         0.515164
 C         1.500605        -0.096128         0.277970
 C         1.908799         1.085059        -0.553795
 C         3.398665         0.519205        -0.214417
 C         4.315862         0.014279        -1.359173
 O         3.292875        -1.128554        -1.625019
 C         2.756429        -0.917978        -0.228360
 C         3.378905         0.812034         1.263680
 O         2.013914         0.322724         1.569987
 H        -0.144722        -1.157454        -0.362066
 H         0.082774        -1.417527         1.325783
 H        -0.580503         0.079896         0.732318
 H         1.565624         0.968986        -1.799576
 H         1.636067         2.054182        -0.078301
 H         4.368420         0.661540        -2.265248
 H         5.289504        -0.429773        -1.127473
 H         3.138516        -1.721868         0.335679
 H         4.242821         0.279277         1.708834
 H         3.542646         1.868174         1.548863
