19
Iteration:   100
 C         0.279566        -0.798505         0.727558
 C         1.516048        -0.232079         0.182022
 C         2.210097        -0.630014        -1.123446
 C         3.314249         0.297625        -0.531754
 C         4.662798        -0.334884        -0.382414
 O         3.998035        -1.208580         0.750769
 C         2.876870        -0.229478         0.892565
 C         2.628049         1.623484        -0.740556
 O         1.247733         1.325239        -0.196890
 H         0.051512        -1.727414         0.265452
 H         0.415761        -1.084139         1.792562
 H        -0.558138        -0.083767         0.700066
 H         2.480994        -1.693752        -1.156452
 H         1.739588        -0.337288        -2.040160
 H         5.019421        -0.982077        -1.152376
 H         5.463152         0.300652         0.077922
 H         3.037636         0.320829         1.814022
 H         3.103751         2.344378        -0.172328
 H         2.611123         1.925508        -1.707072
