19
Iteration:  4728
 C         0.088856        -0.695833         0.452651
 C         1.467979        -0.083238         0.264305
 C         1.935960         1.104804        -0.634049
 C         3.377423         0.502696        -0.177439
 C         4.255104         0.049908        -1.417848
 O         3.278595        -1.106032        -1.547999
 C         2.790273        -0.940437        -0.181713
 C         3.430215         0.802734         1.273661
 O         2.080998         0.302513         1.594703
 H        -0.293655        -0.969621        -0.503761
 H         0.354000        -1.550845         0.936073
 H        -0.594687        -0.179065         0.967617
 H         1.657446         0.985979        -1.648040
 H         1.602726         2.183054        -0.281732
 H         4.286200         0.561276        -2.382132
 H         5.370473        -0.260077        -1.136626
 H         3.106225        -1.658729         0.576568
 H         4.235442         0.176463         1.787952
 H         3.524349         1.854628         1.535809
