19
Iteration:  2648charge 0 multiplicity 1
 C         0.063768        -0.760575         0.500227
 C         1.432581        -0.136042         0.176729
 C         1.872775         0.727718        -0.959948
 C         3.303648         0.435502        -0.324372
 C         4.339810        -0.143523        -1.225875
 O         3.629072        -1.459123        -1.103892
 C         2.881145        -0.935559         0.091234
 C         3.249878         1.294382         0.957719
 O         1.934741         0.841233         1.469983
 H        -0.490260        -0.423441         1.481279
 H        -0.671830        -0.501516        -0.357807
 H         0.153264        -1.899295         0.462530
 H         1.797058         0.361879        -1.928968
 H         1.514144         1.709358        -0.962855
 H         4.329234         0.214747        -2.258226
 H         5.351693        -0.093045        -0.879889
 H         3.101478        -1.622155         0.987930
 H         4.071742         1.112889         1.766120
 H         3.259812         2.420145         0.807580
