19
Iteration:  2055
 C         0.245829        -0.662476         0.540511
 C         1.571932        -0.190588         0.174886
 C         1.939702         0.456299        -1.211721
 C         3.329189         0.562676        -0.394042
 C         4.396880        -0.300884        -1.067192
 O         3.544412        -1.505901        -0.816922
 C         2.908359        -0.828942         0.261876
 C         2.986463         1.539660         0.795903
 O         1.835791         0.793478         1.261809
 H        -0.422539         0.221431         0.615617
 H        -0.182636        -1.266674        -0.191656
 H         0.311029        -1.094737         1.496164
 H         2.068051        -0.126356        -2.136241
 H         1.353256         1.435543        -1.468606
 H         4.580021        -0.199614        -2.189981
 H         5.348862        -0.393972        -0.571220
 H         3.240267        -1.099168         1.351544
 H         3.688419         1.636636         1.669028
 H         2.548832         2.548812         0.668508
