19
Iteration:  1688charge 0 multiplicity 1
 C         0.120380        -0.860349         0.600937
 C         1.448370        -0.187472         0.098461
 C         1.995341         0.449047        -1.222055
 C         3.342455         0.551806        -0.365084
 C         4.397918        -0.440083        -0.986553
 O         3.762335        -1.602520        -0.588011
 C         2.890768        -0.732526         0.388202
 C         2.945659         1.696709         0.518214
 O         1.760494         1.001902         1.085503
 H         0.430755        -1.722322         1.271634
 H        -0.183129        -0.198690         1.417306
 H        -0.709694        -1.067157        -0.027864
 H         2.017240        -0.213948        -2.165921
 H         1.561576         1.439494        -1.424058
 H         4.721400        -0.380295        -2.050388
 H         5.430256        -0.364946        -0.445086
 H         3.265771        -0.926117         1.455795
 H         3.912261         1.850751         1.205773
 H         2.652816         2.645481        -0.017576
