19
Iteration:  1901charge 0 multiplicity 1
 C         0.177677        -0.739926         0.519709
 C         1.533512        -0.116793         0.250657
 C         1.834530         0.297199        -1.213667
 C         3.328121         0.606013        -0.465454
 C         4.470868        -0.255001        -1.054283
 O         3.613295        -1.552846        -0.703532
 C         2.905327        -0.717134         0.296760
 C         3.099114         1.456900         0.756394
 O         1.762067         0.972462         1.162939
 H         0.076368        -1.771794         0.254408
 H        -0.071007        -0.606988         1.555213
 H        -0.541347        -0.078089         0.095658
 H         1.932651        -0.669246        -1.893652
 H         1.206817         1.083193        -1.586757
 H         4.705882        -0.192227        -2.170142
 H         5.462459        -0.448288        -0.553005
 H         3.440687        -1.086067         1.234480
 H         3.788942         1.323778         1.493383
 H         2.956953         2.541829         0.703491
