19
Iteration:   924
 C         0.177114        -0.818797         0.549340
 C         1.505685        -0.220763         0.286138
 C         2.033396        -0.121379        -1.207949
 C         3.265455         0.399760        -0.508865
 C         4.533711        -0.364807        -0.736439
 O         3.883355        -1.515000         0.036617
 C         2.983866        -0.615989         0.672086
 C         2.879630         1.748797         0.002808
 O         1.469068         1.349044         0.488526
 H        -0.428958        -0.145209         1.136855
 H        -0.391208        -1.168701        -0.291342
 H         0.324159        -1.664888         1.225515
 H         2.016023        -1.119970        -1.733006
 H         1.369482         0.606855        -1.639824
 H         4.928265        -0.669991        -1.740232
 H         5.437690        -0.055539        -0.150594
 H         3.362546        -0.506096         1.680653
 H         3.585313         2.089209         0.772625
 H         2.765218         2.401293        -0.777803
