19
Iteration:   597charge 0 multiplicity 1
 C         0.240602        -0.820577         0.717954
 C         1.549171        -0.257623         0.110840
 C         2.186868        -0.380890        -1.210950
 C         3.337390         0.475636        -0.539102
 C         4.537443        -0.498330        -0.549772
 O         3.863454        -1.373716         0.350275
 C         2.953014        -0.361940         0.706863
 C         2.673986         1.781491        -0.318654
 O         1.421969         1.282396         0.317387
 H        -0.410163         0.046330         0.814085
 H        -0.173613        -1.417885        -0.202872
 H         0.291435        -1.506269         1.566631
 H         2.467289        -1.333183        -1.561471
 H         1.600271        -0.164648        -2.115289
 H         4.819146        -0.987529        -1.489221
 H         5.316193         0.032505        -0.015810
 H         3.175054        -0.121595         1.808074
 H         3.086272         2.478229         0.330114
 H         2.673109         2.379144        -1.246129
