19
Iteration:  1000charge 0 multiplicity 1
 C         0.130093        -0.862996         0.643696
 C         1.479195        -0.224428         0.228927
 C         1.950549        -0.059604        -1.182404
 C         3.384581         0.494032        -0.458487
 C         4.601806        -0.399982        -0.715737
 O         3.854337        -1.554846        -0.075056
 C         2.968491        -0.618036         0.567893
 C         2.869359         1.776778         0.030946
 O         1.483340         1.315789         0.548746
 H        -0.229150        -1.624726        -0.053533
 H         0.225230        -1.407540         1.566848
 H        -0.677146        -0.089974         0.744058
 H         2.200500        -1.057920        -1.716565
 H         1.701308         0.712734        -1.852975
 H         4.816685        -0.665963        -1.760609
 H         5.526213        -0.174372        -0.140425
 H         3.085191        -0.574963         1.634193
 H         3.625191         2.048987         0.934393
 H         2.866415         2.582064        -0.743536
