19
Iteration:  2879charge 0 multiplicity 1
 C         0.087456        -0.840950         0.432416
 C         1.482898        -0.093521         0.247982
 C         1.973826         0.832408        -0.815003
 C         3.327173         0.583124        -0.317637
 C         4.287960        -0.158595        -1.216249
 O         3.453340        -1.387529        -1.255017
 C         2.821376        -0.951902         0.048577
 C         3.284104         1.245156         1.036403
 O         1.982413         0.695244         1.427933
 H         0.260011        -1.714859         1.160886
 H        -0.642223        -0.205870         0.815106
 H        -0.265863        -1.276840        -0.503967
 H         1.711326         0.611696        -1.759207
 H         1.597221         1.824418        -0.433903
 H         4.414175         0.322630        -2.180507
 H         5.312180        -0.369636        -0.800445
 H         3.226235        -1.606825         0.933664
 H         4.190058         0.920324         1.661606
 H         3.201895         2.360861         0.898352
