19
Iteration:  4830charge 0 multiplicity 1
 C         0.130413        -0.788106         0.441128
 C         1.491288        -0.123110         0.249743
 C         1.996943         1.125679        -0.601728
 C         3.410317         0.568423        -0.217575
 C         4.230505        -0.029618        -1.414182
 O         3.200217        -1.069512        -1.547315
 C         2.762728        -0.854928        -0.147758
 C         3.395240         0.808707         1.286629
 O         2.070502         0.291567         1.555651
 H        -0.076198        -1.399110        -0.451519
 H         0.341428        -1.361627         1.361800
 H        -0.574429         0.018595         0.551895
 H         1.909946         0.930421        -1.794847
 H         1.796174         2.136521        -0.138825
 H         4.428069         0.697830        -2.273445
 H         5.273198        -0.448801        -1.015546
 H         3.090923        -1.516404         0.588384
 H         4.116874         0.226813         1.841808
 H         3.499784         1.853106         1.592193
