19
Iteration:  2341
 C         0.128649        -0.677287         0.537581
 C         1.474109        -0.117552         0.286744
 C         1.871814         0.691655        -0.937753
 C         3.331560         0.454997        -0.361569
 C         4.373757        -0.215897        -1.196892
 O         3.653523        -1.497036        -1.040092
 C         2.888339        -0.935524         0.154957
 C         3.139591         1.327175         0.900750
 O         1.820540         0.859540         1.287410
 H        -0.654455        -0.098429         0.066909
 H         0.165696        -1.707683         0.017838
 H        -0.007030        -0.804438         1.639066
 H         1.831502         0.072024        -1.921135
 H         1.470831         1.675744        -1.156934
 H         4.446740         0.076205        -2.303335
 H         5.359055        -0.181272        -0.662004
 H         3.305651        -1.410634         1.008195
 H         3.965721         1.053564         1.707716
 H         3.192090         2.371552         0.603565
