19
Iteration:  4423charge 0 multiplicity 1
 C         0.154470        -0.697227         0.491192
 C         1.487579        -0.096183         0.275687
 C         1.922471         1.116224        -0.552463
 C         3.384868         0.497163        -0.224554
 C         4.272748         0.035242        -1.359235
 O         3.307056        -1.157883        -1.645998
 C         2.797582        -0.895558        -0.219470
 C         3.410261         0.801826         1.247146
 O         2.010074         0.344906         1.578168
 H        -0.239019        -1.257790        -0.449524
 H         0.264593        -1.465933         1.279702
 H        -0.549572         0.047928         0.962859
 H         1.620675         1.090151        -1.552544
 H         1.730833         2.113726        -0.156573
 H         4.365003         0.668597        -2.241140
 H         5.247193        -0.467849        -1.086168
 H         2.944888        -1.764536         0.564358
 H         4.040189         0.194319         1.938191
 H         3.494808         1.886107         1.472383
