19
Iteration:  3703
 C         0.126282        -0.557032         0.472998
 C         1.585183        -0.178930         0.265005
 C         1.888125         0.977878        -0.639890
 C         3.382821         0.571138        -0.149310
 C         4.197054         0.006172        -1.362129
 O         3.304964        -1.120221        -1.601832
 C         2.812715        -0.912254        -0.165128
 C         3.379762         0.969706         1.274367
 O         2.086420         0.128873         1.562805
 H        -0.441983        -0.015137        -0.216718
 H         0.024597        -1.523399         0.362743
 H        -0.203325        -0.176793         1.324045
 H         1.816062         0.879598        -1.872814
 H         1.401253         1.933711        -0.404451
 H         4.317805         0.644299        -2.294399
 H         5.215905        -0.249443        -1.053004
 H         2.939683        -1.774312         0.526074
 H         4.251150         0.693919         2.012002
 H         3.111350         2.090973         1.442684
