19
Iteration:  2715charge 0 multiplicity 1
 C         0.062300        -0.806138         0.485206
 C         1.438413        -0.137029         0.299758
 C         1.909333         0.684811        -0.891235
 C         3.375486         0.521288        -0.255100
 C         4.392057        -0.169853        -1.199533
 O         3.490372        -1.350879        -1.204118
 C         2.846888        -0.893887         0.082747
 C         3.262812         1.279397         0.983435
 O         1.938390         0.792832         1.355547
 H        -0.923931        -0.146482         0.409567
 H         0.100939        -1.523846        -0.345988
 H         0.146459        -1.553465         1.338163
 H         1.668905         0.172297        -1.692898
 H         1.558932         1.646923        -0.962771
 H         4.472692         0.111425        -2.220615
 H         5.363019        -0.357451        -0.804234
 H         3.166251        -1.563569         0.937525
 H         4.035909         1.237657         1.821236
 H         3.258725         2.345671         0.594644
