19
Iteration:  3476
 C         0.209638        -0.714887         0.406775
 C         1.568454        -0.128912         0.342356
 C         1.920296         0.928772        -0.749947
 C         3.434580         0.507990        -0.179655
 C         4.254774        -0.080439        -1.290132
 O         3.200444        -1.109599        -1.547817
 C         2.817139        -0.893032        -0.107808
 C         3.321171         1.027286         1.225851
 O         2.046290         0.405631         1.565957
 H         0.249042        -1.716910        -0.015004
 H        -0.275916        -0.789378         1.522849
 H        -0.511128        -0.178205        -0.244857
 H         1.693209         0.515926        -1.782855
 H         1.549993         1.874313        -0.420144
 H         4.510834         0.488096        -2.176089
 H         5.147055        -0.614558        -1.049166
 H         3.178875        -1.768006         0.422465
 H         4.063482         0.667395         1.876431
 H         3.286732         2.202566         1.362740
