19
Iteration:  1728charge 0 multiplicity 1
 C         0.131456        -0.724783         0.495779
 C         1.509240        -0.198011         0.251148
 C         1.894632         0.201398        -1.177367
 C         3.281516         0.505199        -0.470382
 C         4.375332        -0.319491        -0.989787
 O         3.740419        -1.539336        -0.676018
 C         3.026047        -0.716310         0.425132
 C         3.063343         1.573336         0.629344
 O         1.706242         1.110996         1.091956
 H         0.049055        -1.133514         1.548356
 H        -0.574686         0.132577         0.312393
 H        -0.081670        -1.588447        -0.172719
 H         2.003898        -0.716765        -1.822145
 H         1.363202         0.977404        -1.626119
 H         4.600814        -0.177116        -2.056989
 H         5.249774        -0.196702        -0.401384
 H         3.381052        -0.989250         1.380492
 H         3.596445         1.247741         1.490958
 H         3.044125         2.628128         0.291445
