19
Iteration:  2709charge 0 multiplicity 1
 C         0.120162        -0.774899         0.492382
 C         1.468082        -0.160058         0.256085
 C         1.909631         0.651181        -0.885426
 C         3.356771         0.530715        -0.272885
 C         4.369561        -0.194894        -1.179059
 O         3.479274        -1.342210        -1.189891
 C         2.842499        -0.872022         0.089780
 C         3.251034         1.331099         0.964639
 O         1.934899         0.758876         1.386555
 H        -0.651766        -0.074696         0.606392
 H         0.008432        -1.342656        -0.462402
 H         0.099768        -1.586823         1.192855
 H         1.775126         0.051220        -1.941291
 H         1.400752         1.704397        -0.920418
 H         4.461694         0.113660        -2.264439
 H         5.389958        -0.428608        -0.726087
 H         3.053933        -1.629026         0.839637
 H         3.962545         1.171735         1.739820
 H         3.216187         2.403684         0.766340
