19
Iteration:  4874charge 0 multiplicity 1
 C         0.094375        -0.708834         0.383209
 C         1.519760        -0.097302         0.317987
 C         2.002234         1.011402        -0.620539
 C         3.411970         0.491092        -0.204358
 C         4.210043         0.037937        -1.400530
 O         3.204593        -1.029407        -1.530459
 C         2.800958        -0.915797        -0.134353
 C         3.391386         0.805356         1.227351
 O         2.105482         0.327404         1.608207
 H        -0.111627        -1.340133        -0.465182
 H        -0.009968        -1.334925         1.279026
 H        -0.725338        -0.101591         0.206019
 H         1.659386         0.728084        -1.775325
 H         1.841960         2.027285        -0.164204
 H         4.327303         0.805527        -2.241264
 H         5.287366        -0.257138        -1.094958
 H         3.114190        -1.778462         0.494465
 H         4.169936         0.291574         1.793554
 H         3.469460         1.883005         1.455544
