19
Iteration:  3957
 C         0.066800        -0.792988         0.346982
 C         1.418695        -0.111370         0.249905
 C         2.044823         1.097720        -0.553618
 C         3.370260         0.479675        -0.197439
 C         4.151905         0.045816        -1.427481
 O         3.350534        -1.183506        -1.543154
 C         2.722474        -0.860523        -0.158600
 C         3.416055         0.831942         1.272784
 O         2.146310         0.380178         1.635826
 H        -0.558166        -0.732681        -0.531091
 H         0.181884        -1.842766         0.622704
 H        -0.472113        -0.293304         1.118163
 H         1.822032         1.003216        -1.767624
 H         1.861095         2.169246        -0.163291
 H         4.042892         0.830725        -2.237267
 H         5.162670        -0.051389        -1.201480
 H         3.102984        -1.530018         0.724900
 H         4.171807         0.294107         1.847099
 H         3.599383         1.893016         1.270423
