19
Iteration:  4411charge 0 multiplicity 1
 C         0.138485        -0.782608         0.479703
 C         1.477125        -0.060632         0.231117
 C         2.019846         1.156240        -0.583168
 C         3.364852         0.481822        -0.209917
 C         4.159493         0.005894        -1.403012
 O         3.331076        -1.143087        -1.579996
 C         2.726077        -0.908835        -0.221729
 C         3.442132         0.809572         1.276883
 O         2.021187         0.369038         1.577787
 H        -0.480362        -1.039815        -0.482027
 H         0.472545        -1.703383         0.984358
 H        -0.620989        -0.172725         1.143353
 H         1.870270         1.130864        -1.584540
 H         1.860476         2.123188        -0.102073
 H         4.298869         0.667761        -2.244634
 H         5.184405        -0.234355        -0.974469
 H         3.272599        -1.729634         0.544639
 H         4.179168         0.224038         1.946312
 H         3.539990         1.876227         1.512698
