19
Iteration:   928
 C         0.168371        -0.851953         0.568156
 C         1.487778        -0.215307         0.256267
 C         2.035511        -0.102370        -1.185192
 C         3.282074         0.382840        -0.527635
 C         4.541368        -0.359678        -0.708110
 O         3.899849        -1.514312         0.021962
 C         2.974258        -0.598573         0.664008
 C         2.870489         1.714509        -0.011059
 O         1.489207         1.356349         0.503070
 H        -0.492863        -0.062421         0.981024
 H        -0.324490        -1.176343        -0.347935
 H         0.220122        -1.588631         1.398643
 H         1.958863        -1.082065        -1.634938
 H         1.472165         0.683958        -1.672512
 H         4.793677        -0.732684        -1.727692
 H         5.450726         0.004901        -0.232322
 H         3.351436        -0.527925         1.728809
 H         3.453518         2.050432         0.802235
 H         2.730394         2.515981        -0.802555
