19
Iteration:  1306charge 0 multiplicity 1
 C         0.193354        -0.801621         0.607618
 C         1.497446        -0.184522         0.180071
 C         2.069698         0.146034        -1.277205
 C         3.279427         0.456373        -0.408586
 C         4.480589        -0.367194        -0.834318
 O         3.820436        -1.627508        -0.316176
 C         2.873396        -0.695145         0.518389
 C         2.957093         1.765514         0.281251
 O         1.549751         1.176244         0.836691
 H        -0.199062        -0.224666         1.509043
 H        -0.539340        -0.720431        -0.245911
 H         0.450181        -1.901342         0.786811
 H         2.210466        -0.681827        -1.884638
 H         1.507746         0.998271        -1.822036
 H         4.480658        -0.613110        -1.881676
 H         5.466892        -0.210394        -0.266693
 H         3.220160        -0.795124         1.581488
 H         3.692673         2.056871         1.054777
 H         2.728093         2.662343        -0.395220
