19
Iteration:  3221charge 0 multiplicity 1
 C         0.086049        -0.740021         0.479150
 C         1.522620        -0.145924         0.234435
 C         1.925286         0.887002        -0.789701
 C         3.353187         0.594103        -0.281312
 C         4.300830        -0.088146        -1.315065
 O         3.315895        -1.259227        -1.378038
 C         2.869786        -0.858480        -0.021139
 C         3.349633         1.063066         1.208200
 O         2.004018         0.477739         1.478505
 H        -0.041551        -0.852724         1.547659
 H        -0.738774        -0.004441         0.158990
 H        -0.085588        -1.704285         0.097611
 H         1.809866         0.471391        -1.840330
 H         1.695358         1.991127        -0.820184
 H         4.486994         0.346299        -2.347842
 H         5.348571        -0.254710        -0.895229
 H         3.238923        -1.564723         0.736593
 H         4.084720         0.572753         1.788361
 H         3.346023         2.138653         1.347245
