19
Iteration:  2384charge 0 multiplicity 1
 C         0.133096        -0.713813         0.481605
 C         1.484338        -0.179187         0.205632
 C         1.917805         0.635613        -1.029597
 C         3.359025         0.574591        -0.339459
 C         4.368692        -0.255363        -1.176035
 O         3.502452        -1.398513        -0.994286
 C         2.908305        -0.844089         0.197120
 C         3.133361         1.373118         0.868892
 O         1.955136         0.713373         1.359252
 H        -0.560790        -0.380560        -0.346206
 H        -0.096447        -1.866808         0.627550
 H        -0.254647        -0.210780         1.427123
 H         1.746860        -0.017240        -1.923197
 H         1.405829         1.538213        -1.230243
 H         4.503080        -0.104347        -2.317558
 H         5.362995        -0.499189        -0.654492
 H         3.184067        -1.262804         1.119676
 H         4.022986         1.418143         1.681535
 H         2.869858         2.433961         0.841404
