19
Iteration:  2374
 C         0.070659        -0.685536         0.459763
 C         1.512185        -0.234137         0.188071
 C         1.858812         0.513677        -1.003761
 C         3.287496         0.622993        -0.421812
 C         4.428138        -0.241976        -1.167674
 O         3.461341        -1.329609        -0.996299
 C         2.895935        -0.816153         0.227108
 C         3.221902         1.327090         0.915677
 O         1.959736         0.761984         1.381611
 H        -0.571500        -0.292915        -0.323831
 H         0.036265        -1.856890         0.451463
 H        -0.309113        -0.290789         1.441973
 H         2.125084        -0.262966        -1.812080
 H         1.370208         1.395929        -1.356989
 H         4.632071        -0.098208        -2.299885
 H         5.429019        -0.288449        -0.626176
 H         3.162974        -1.297003         1.122057
 H         4.113146         1.039267         1.736951
 H         3.126677         2.385405         0.697686
