19
Iteration:  1497
 C         0.275709        -0.797694         0.559660
 C         1.549724        -0.202984         0.126340
 C         2.004428         0.308418        -1.318931
 C         3.281653         0.563458        -0.506238
 C         4.408392        -0.442029        -0.923942
 O         3.700673        -1.613889        -0.412023
 C         2.928068        -0.640054         0.512699
 C         2.949378         1.682756         0.472268
 O         1.629797         1.046206         1.018779
 H         0.158843        -0.568379         1.638307
 H        -0.536786        -0.299412         0.004024
 H         0.281856        -1.916847         0.385983
 H         2.016496        -0.489813        -1.994350
 H         1.580558         1.254313        -1.647694
 H         4.651705        -0.593055        -2.037074
 H         5.365478        -0.382230        -0.364353
 H         3.282539        -0.690175         1.513312
 H         3.644550         1.811771         1.348277
 H         2.651377         2.475968        -0.047265
