19
Iteration:  3443
 C         0.100954        -0.674511         0.510360
 C         1.489995        -0.160967         0.242706
 C         1.999313         0.972815        -0.753082
 C         3.421806         0.528270        -0.206153
 C         4.251421         0.051468        -1.380065
 O         3.350277        -1.279179        -1.447458
 C         2.834761        -0.885682        -0.102694
 C         3.306888         0.954525         1.215911
 O         2.017558         0.410928         1.523717
 H        -0.165673        -1.317687        -0.316286
 H         0.032357        -1.300623         1.520776
 H        -0.619380         0.133898         0.624753
 H         1.618887         0.859942        -1.838923
 H         1.664306         1.950311        -0.424602
 H         4.123912         0.667841        -2.279423
 H         5.240901        -0.312914        -1.170699
 H         3.203769        -1.626841         0.605367
 H         4.004924         0.426257         1.804305
 H         3.306720         2.150792         1.483924
