19
Iteration:  4936charge 0 multiplicity 1
 C        -0.021869        -0.635833         0.560444
 C         1.433072        -0.119082         0.227234
 C         1.928338         1.030297        -0.628112
 C         3.383213         0.540481        -0.251827
 C         4.246477         0.031891        -1.335858
 O         3.410823        -1.146673        -1.590514
 C         2.794854        -0.867271        -0.222615
 C         3.444489         0.872632         1.238245
 O         2.086490         0.220527         1.581563
 H        -0.662331        -0.624524        -0.392974
 H         0.002748        -1.649080         0.978569
 H        -0.309893         0.079234         1.434808
 H         1.763429         0.810970        -1.667138
 H         1.625069         2.034870        -0.428774
 H         4.411894         0.728351        -2.185671
 H         5.203767        -0.202582        -0.889317
 H         2.998301        -1.760743         0.480600
 H         4.241185         0.363426         1.893119
 H         3.423581         1.969309         1.417285
