19
Iteration:  2546charge 0 multiplicity 1
 C         0.051420        -0.817805         0.492138
 C         1.472715        -0.197021         0.277247
 C         1.889847         0.658451        -0.971054
 C         3.334486         0.594924        -0.390143
 C         4.347127        -0.202859        -1.204264
 O         3.525450        -1.427619        -1.099196
 C         2.923961        -0.816769         0.144255
 C         3.302197         1.273986         0.985259
 O         1.881261         0.868622         1.337358
 H         0.161106        -1.809956         0.931953
 H        -0.609567        -0.211328         1.262893
 H        -0.553488        -0.759388        -0.457305
 H         1.874960         0.075456        -1.976672
 H         1.367669         1.677953        -1.068256
 H         4.791925         0.006869        -2.214903
 H         5.111785        -0.497134        -0.510790
 H         3.343045        -1.415754         1.104886
 H         3.964828         0.691323         1.700235
 H         3.334977         2.455562         0.973508
