19
Iteration:  4102
 C         0.177601        -0.717149         0.304867
 C         1.498519        -0.096956         0.347105
 C         1.982393         1.013170        -0.516578
 C         3.346894         0.531690        -0.218164
 C         4.123862         0.017731        -1.383476
 O         3.289041        -1.091891        -1.601185
 C         2.748846        -0.932984        -0.171300
 C         3.473600         0.879995         1.267349
 O         2.074099         0.353974         1.632617
 H        -0.081271        -1.124040        -0.607254
 H         0.152060        -1.445288         1.101692
 H        -0.639882         0.006045         0.448895
 H         1.831240         0.661825        -1.628983
 H         1.715691         2.171946        -0.331522
 H         4.173851         0.695710        -2.263072
 H         5.093107        -0.333734        -1.091766
 H         3.180512        -1.974650         0.385580
 H         4.080081         0.122145         1.852874
 H         3.616478         1.859637         1.629081
