19
Iteration:  1600
 C         0.195052        -0.740204         0.567526
 C         1.522742        -0.128820         0.185438
 C         2.008465         0.325127        -1.199650
 C         3.324670         0.501057        -0.439165
 C         4.395717        -0.350556        -1.052200
 O         3.745114        -1.613149        -0.476792
 C         2.916444        -0.688008         0.429479
 C         2.874212         1.627408         0.502802
 O         1.724086         0.971500         1.024911
 H        -0.475248        -0.856074        -0.309398
 H         0.337280        -1.748937         0.975357
 H        -0.224722        -0.095683         1.297727
 H         2.095294        -0.546250        -1.964389
 H         1.570152         1.190777        -1.656049
 H         4.706507        -0.492971        -2.109769
 H         5.353079        -0.266515        -0.423514
 H         3.180820        -0.859532         1.522391
 H         3.560303         1.876949         1.299515
 H         2.698205         2.691103         0.235661
