19
Iteration:   242charge 0 multiplicity 1
 C         0.266247        -0.825076         0.757546
 C         1.465338        -0.306290         0.073894
 C         2.147528        -0.531156        -1.240684
 C         3.302103         0.351592        -0.607483
 C         4.713528        -0.415739        -0.339675
 O         3.968470        -1.280379         0.709813
 C         2.892323        -0.215915         0.722130
 C         2.584923         1.726427        -0.662409
 O         1.389042         1.283853         0.091559
 H        -0.693958        -0.626327         0.280328
 H         0.308425        -1.886713         1.101023
 H         0.327390        -0.196489         1.657907
 H         2.400566        -1.560079        -1.442058
 H         1.720302        -0.109122        -2.123956
 H         5.276601        -0.968577        -1.058765
 H         5.367325         0.308073         0.221781
 H         2.920339         0.253292         1.640374
 H         3.134113         2.514177        -0.255857
 H         2.208477         2.006340        -1.706693
