19
Iteration:  4666
 C         0.125486        -0.697785         0.456131
 C         1.567623        -0.102980         0.321215
 C         1.996806         1.056779        -0.609937
 C         3.441304         0.498888        -0.177463
 C         4.257914        -0.012388        -1.382764
 O         3.194900        -1.021319        -1.578540
 C         2.742342        -0.888550        -0.199672
 C         3.390095         0.888674         1.220779
 O         2.045599         0.203416         1.596916
 H        -0.090219        -1.462197        -0.400823
 H        -0.008488        -1.173829         1.528452
 H        -0.603995         0.138231         0.171815
 H         1.927283         0.730552        -1.617246
 H         1.707275         2.031842        -0.258374
 H         4.289043         0.634943        -2.256808
 H         5.210951        -0.336506        -1.121179
 H         3.094479        -1.719141         0.484509
 H         4.215077         0.539239         1.787936
 H         3.303166         1.964382         1.402534
