19
Iteration:  3181charge 0 multiplicity 1
 C         0.123044        -0.786628         0.383220
 C         1.455352        -0.084260         0.313365
 C         1.947838         1.007034        -0.708368
 C         3.379844         0.521778        -0.297524
 C         4.283927        -0.090820        -1.354157
 O         3.394603        -1.351308        -1.323693
 C         2.802232        -0.905478        -0.018308
 C         3.361450         1.092838         1.110570
 O         1.995953         0.534912         1.495531
 H         0.271829        -1.697283         1.015875
 H        -0.562842        -0.208450         0.938272
 H        -0.215743        -1.038836        -0.628265
 H         1.594399         0.635048        -1.806902
 H         1.603807         2.027463        -0.559382
 H         4.309989         0.268388        -2.412333
 H         5.255272        -0.354570        -0.968530
 H         3.177977        -1.454186         0.858505
 H         4.055015         0.794505         1.927464
 H         3.173474         2.210581         1.297299
