19
Iteration:   493charge 0 multiplicity 1
 C         0.204188        -0.726738         0.651035
 C         1.508622        -0.204170         0.210656
 C         2.073546        -0.475547        -1.180968
 C         3.258278         0.314935        -0.511897
 C         4.626250        -0.420068        -0.509587
 O         4.086539        -1.387421         0.393060
 C         2.935993        -0.387986         0.799718
 C         2.641897         1.789358        -0.383249
 O         1.373065         1.305711         0.128208
 H         0.276183        -1.766801         0.331000
 H         0.062159        -0.637819         1.677978
 H        -0.603582        -0.264307         0.106710
 H         2.310224        -1.540139        -1.219249
 H         1.541424        -0.005310        -1.993232
 H         5.017953        -0.643517        -1.472646
 H         5.406124         0.091405         0.037774
 H         3.137631        -0.037148         1.786046
 H         3.119930         2.353009         0.403856
 H         2.549239         2.274957        -1.335395
