19
Iteration:  1923
 C         0.102420        -0.800339         0.608227
 C         1.467693        -0.213673         0.187702
 C         1.986310         0.435582        -1.095215
 C         3.294277         0.482851        -0.368646
 C         4.386114        -0.315873        -1.028252
 O         3.652432        -1.497579        -0.829558
 C         2.958525        -0.790869         0.346846
 C         3.146679         1.513367         0.693724
 O         1.730222         1.051603         1.086890
 H         0.245165        -1.861262         0.746747
 H        -0.339382        -0.367411         1.480542
 H        -0.627377        -0.622334        -0.147601
 H         2.029388        -0.268508        -2.038011
 H         1.496086         1.379421        -1.297999
 H         4.619606        -0.230434        -2.143751
 H         5.398001        -0.292124        -0.545628
 H         3.430502        -1.200987         1.319978
 H         3.738328         1.529966         1.548438
 H         2.937319         2.520340         0.388088
