19
Iteration:  2086charge 0 multiplicity 1
 C         0.016021        -0.841522         0.486683
 C         1.421494        -0.113715         0.350655
 C         1.851233         0.520263        -1.030749
 C         3.346686         0.477949        -0.410620
 C         4.464818        -0.274909        -1.041843
 O         3.684157        -1.483136        -0.917425
 C         2.850410        -0.845113         0.264387
 C         3.218211         1.499195         0.721986
 O         1.844069         0.954847         1.184010
 H        -0.705530        -0.357232        -0.253043
 H         0.237216        -1.877291         0.270241
 H        -0.386322        -0.850258         1.496258
 H         1.768066        -0.039799        -1.993047
 H         1.299780         1.470353        -1.203258
 H         4.723945        -0.087096        -2.079808
 H         5.386696        -0.372813        -0.499831
 H         3.368580        -1.265998         1.150997
 H         3.925924         1.383089         1.703002
 H         3.061795         2.566372         0.618717
