19
Iteration:  4217
 C         0.171320        -0.635777         0.393168
 C         1.539316        -0.163508         0.275864
 C         1.956520         1.068387        -0.620370
 C         3.413871         0.579452        -0.225451
 C         4.189393        -0.014836        -1.405106
 O         3.238952        -1.075681        -1.537390
 C         2.829644        -0.894261        -0.131325
 C         3.381103         0.806073         1.255577
 O         2.027914         0.251367         1.607639
 H        -0.121211        -1.076569        -0.598625
 H         0.336320        -1.359054         1.190576
 H        -0.440929         0.192409         0.645039
 H         1.653825         0.803272        -1.703033
 H         1.727743         2.044926        -0.203301
 H         4.174934         0.678536        -2.249094
 H         5.193598        -0.361785        -1.208532
 H         3.179316        -1.756700         0.571994
 H         4.096712         0.338612         1.887149
 H         3.307165         1.911150         1.589215
