19
Iteration:  3448charge 0 multiplicity 1
 C         0.099597        -0.689712         0.486677
 C         1.497431        -0.183769         0.218587
 C         2.017513         0.945445        -0.777062
 C         3.413892         0.540512        -0.207493
 C         4.239892         0.055987        -1.379492
 O         3.289620        -1.245104        -1.435623
 C         2.858459        -0.864185        -0.079592
 C         3.303503         0.982927         1.239609
 O         2.031478         0.398577         1.531545
 H        -0.287426        -1.479723        -0.203878
 H         0.147265        -1.040503         1.479635
 H        -0.682161         0.095060         0.528943
 H         1.813446         0.744022        -1.802361
 H         1.689547         1.981732        -0.343034
 H         4.273383         0.591100        -2.351691
 H         5.297715        -0.364934        -1.248874
 H         3.167125        -1.695179         0.598725
 H         4.136836         0.450821         1.875019
 H         3.297206         1.988422         1.471414
