19
Iteration:  4521
 C         0.152424        -0.732333         0.457736
 C         1.492113        -0.088466         0.242476
 C         1.981531         1.106033        -0.654111
 C         3.376318         0.537909        -0.210137
 C         4.165335         0.042760        -1.393474
 O         3.272695        -1.091528        -1.508751
 C         2.776262        -0.862692        -0.170667
 C         3.448808         0.712087         1.261107
 O         2.080750         0.327176         1.567647
 H        -0.180008        -1.166924        -0.582930
 H         0.188547        -1.543969         1.229476
 H        -0.551358         0.075051         0.806790
 H         1.719395         0.912391        -1.697993
 H         1.625401         2.127403        -0.384167
 H         4.193930         0.676958        -2.230980
 H         5.139291        -0.209696        -1.070405
 H         3.014996        -1.717428         0.602099
 H         4.142634         0.029619         1.781943
 H         3.493436         1.639859         1.760090
