19
Iteration:  2290charge 0 multiplicity 1
 C         0.273781        -0.779134         0.457070
 C         1.533064        -0.088792         0.253691
 C         1.910776         0.558480        -1.058379
 C         3.330500         0.580956        -0.440206
 C         4.374144        -0.294030        -1.127000
 O         3.427764        -1.432890        -0.984288
 C         2.894290        -0.799617         0.209892
 C         3.160407         1.375354         0.929719
 O         1.821619         0.801565         1.347589
 H        -0.311172        -0.170549         1.116136
 H        -0.275979        -0.810048        -0.442777
 H         0.451461        -1.784065         0.818396
 H         1.789567        -0.059060        -2.010991
 H         1.571568         1.589054        -1.241110
 H         4.543788        -0.052331        -2.148856
 H         5.314013        -0.482934        -0.638302
 H         3.252616        -1.327652         1.198744
 H         3.978565         1.246815         1.527827
 H         3.120666         2.493825         0.874802
