19
Iteration:  2093
 C        -0.010985        -0.880903         0.516308
 C         1.417802        -0.113046         0.318937
 C         1.854838         0.560535        -1.074470
 C         3.371094         0.475294        -0.352863
 C         4.498175        -0.277274        -1.139107
 O         3.698526        -1.482004        -0.875233
 C         2.814169        -0.876889         0.244469
 C         3.235530         1.504221         0.800715
 O         1.837248         1.001838         1.173828
 H        -0.684886        -0.610933        -0.310474
 H         0.327618        -1.994566         0.424606
 H        -0.621992        -0.751930         1.488892
 H         1.621445        -0.118515        -1.942242
 H         1.412130         1.527635        -1.004250
 H         4.630813        -0.001621        -2.186418
 H         5.443945        -0.332500        -0.471629
 H         3.282870        -1.380368         1.053249
 H         3.814691         1.322995         1.663143
 H         3.193679         2.505263         0.303138
