19
Iteration:   403charge 0 multiplicity 1
 C         0.174557        -0.951352         0.791839
 C         1.459784        -0.302930         0.174279
 C         2.144850        -0.489791        -1.178556
 C         3.359547         0.443459        -0.603019
 C         4.598755        -0.412459        -0.491428
 O         3.925307        -1.274898         0.500479
 C         2.879836        -0.307355         0.791714
 C         2.763289         1.773782        -0.452575
 O         1.401086         1.372080         0.028263
 H        -0.522998        -0.222979         1.034066
 H        -0.208899        -1.673089         0.034490
 H         0.477121        -1.524980         1.637232
 H         2.432771        -1.511011        -1.314327
 H         1.600040        -0.094587        -2.010759
 H         5.015306        -0.933278        -1.383536
 H         5.446996        -0.071829         0.062227
 H         3.048080         0.066102         1.812241
 H         3.389279         2.345562         0.245434
 H         2.683048         2.230507        -1.395073
