19
Iteration:  4484
 C         0.091809        -0.576008         0.465106
 C         1.537722        -0.141090         0.304160
 C         1.942380         0.989215        -0.553564
 C         3.414269         0.493068        -0.182269
 C         4.172718         0.042829        -1.455924
 O         3.355697        -1.039751        -1.597233
 C         2.776796        -0.975083        -0.194988
 C         3.337782         0.865658         1.307687
 O         2.100406         0.219947         1.606677
 H        -0.239690        -1.274420        -0.232779
 H        -0.162830        -0.874502         1.462932
 H        -0.480744         0.330185         0.157486
 H         1.575610         0.760098        -1.789274
 H         1.803113         2.054896        -0.172710
 H         4.265521         0.614518        -2.415598
 H         5.201287        -0.294855        -1.175675
 H         3.097676        -1.877565         0.194412
 H         4.223206         0.510244         1.867305
 H         3.295379         1.953957         1.228668
