19
Iteration:  4629charge 0 multiplicity 1
 C         0.064463        -0.622142         0.508852
 C         1.454932        -0.165543         0.260036
 C         1.857346         1.060373        -0.547246
 C         3.371921         0.544665        -0.237948
 C         4.263083         0.057015        -1.415114
 O         3.401002        -1.134015        -1.529196
 C         2.785163        -0.886468        -0.221747
 C         3.467722         0.748114         1.250728
 O         2.085619         0.305020         1.562073
 H        -0.307424        -1.027991        -0.401270
 H        -0.210019        -1.254796         1.271171
 H        -0.466925         0.264998         0.668749
 H         1.748437         0.911694        -1.657352
 H         1.267244         2.052112        -0.453878
 H         4.096641         0.689579        -2.280842
 H         5.358991        -0.234911        -1.234416
 H         3.073946        -1.609907         0.413487
 H         4.132221         0.085129         1.860195
 H         3.506398         1.726619         1.670944
