19
Iteration:  1442
 C         0.123496        -0.764479         0.532839
 C         1.454805        -0.169000         0.188836
 C         2.005383         0.148399        -1.180604
 C         3.287381         0.498942        -0.438507
 C         4.497571        -0.309850        -0.918503
 O         3.756962        -1.578606        -0.423729
 C         3.001186        -0.731499         0.469536
 C         2.905904         1.653438         0.437354
 O         1.673445         1.142376         0.907371
 H         0.268756        -1.827762         0.858559
 H        -0.346886        -0.161936         1.331680
 H        -0.644489        -0.729365        -0.265530
 H         2.122174        -0.744043        -1.807715
 H         1.553196         0.899605        -1.799284
 H         4.736923        -0.407909        -2.026366
 H         5.393391        -0.442223        -0.291316
 H         3.422741        -0.807179         1.456059
 H         3.632591         1.899883         1.317538
 H         2.821177         2.575290        -0.035153
