19
Iteration:   207charge 0 multiplicity 1
 C         0.218153        -0.805839         0.672517
 C         1.513428        -0.218308         0.168935
 C         2.169824        -0.653726        -1.057347
 C         3.231945         0.310706        -0.641340
 C         4.602184        -0.292499        -0.452152
 O         3.962276        -1.288843         0.678071
 C         2.960196        -0.117608         0.795045
 C         2.716527         1.664945        -0.576803
 O         1.354352         1.231268        -0.041039
 H        -0.496972        -0.050535         0.909553
 H        -0.227707        -1.464716        -0.131252
 H         0.468953        -1.386189         1.581374
 H         2.499843        -1.701233        -1.009588
 H         1.653265        -0.329078        -1.936436
 H         5.170171        -0.867519        -1.234913
 H         5.262225         0.381931         0.097036
 H         3.064938         0.463750         1.660398
 H         3.259841         2.293577         0.187751
 H         2.484171         2.126406        -1.650417
