19
Iteration:  1190
 C         0.245016        -0.848653         0.571859
 C         1.536380        -0.160643         0.188217
 C         1.954388        -0.006777        -1.252813
 C         3.310240         0.467202        -0.501098
 C         4.565528        -0.440951        -0.799381
 O         3.725929        -1.547786        -0.190470
 C         3.008561        -0.533083         0.524924
 C         2.965383         1.690823         0.264729
 O         1.486906         1.257156         0.738635
 H        -0.335271        -1.146313        -0.308726
 H         0.322812        -1.824551         1.073272
 H        -0.407275        -0.252005         1.154360
 H         1.961681        -0.949168        -1.775542
 H         1.375575         0.744349        -1.855323
 H         4.856095        -0.660641        -1.856217
 H         5.311036        -0.261952        -0.079679
 H         3.120404        -0.437878         1.615443
 H         3.646487         1.999207         1.151962
 H         2.870397         2.615296        -0.279054
