19
Iteration:  1851
 C         0.123363        -0.795363         0.578411
 C         1.494078        -0.182634         0.194764
 C         1.888033         0.499561        -1.106139
 C         3.399994         0.470285        -0.276087
 C         4.463798        -0.399737        -1.121347
 O         3.710655        -1.546749        -0.703352
 C         2.899187        -0.784890         0.349692
 C         3.052047         1.647316         0.553918
 O         1.697221         0.969875         1.145133
 H        -0.440779        -0.973421        -0.424505
 H         0.239749        -1.832822         0.982976
 H        -0.489976        -0.240150         1.322046
 H         1.879386        -0.141995        -1.929442
 H         1.522986         1.530658        -1.313963
 H         4.597497        -0.320837        -2.188181
 H         5.485038        -0.431442        -0.781922
 H         3.328824        -1.065605         1.272001
 H         3.702075         1.837989         1.522027
 H         2.958907         2.592209        -0.038345
