19
Iteration:  3427charge 0 multiplicity 1
 C         0.144644        -0.636548         0.494549
 C         1.486486        -0.094621         0.300570
 C         1.855810         1.010498        -0.668010
 C         3.290452         0.484210        -0.266944
 C         4.230754        -0.047224        -1.370000
 O         3.528754        -1.232942        -1.451249
 C         2.792673        -0.971280        -0.156442
 C         3.379662         0.947324         1.185308
 O         1.973820         0.448185         1.537109
 H        -0.344449        -0.936895        -0.508075
 H         0.166540        -1.549838         1.207966
 H        -0.570879         0.125184         0.966688
 H         1.800085         0.684610        -1.639768
 H         1.608248         2.066237        -0.382301
 H         4.266000         0.435289        -2.367935
 H         5.331271        -0.149698        -1.146800
 H         3.139205        -1.682780         0.638985
 H         4.162828         0.498510         1.894678
 H         3.390158         1.929883         1.288124
