19
Iteration:  2786charge 0 multiplicity 1
 C         0.097726        -0.736679         0.459069
 C         1.464885        -0.112240         0.287965
 C         1.982872         0.754630        -0.887853
 C         3.332185         0.533337        -0.364063
 C         4.310265        -0.143974        -1.247002
 O         3.528165        -1.362746        -1.187999
 C         2.845834        -0.945135         0.013565
 C         3.241505         1.273538         0.984444
 O         1.941664         0.641215         1.524777
 H        -0.359338        -1.031272        -0.442246
 H         0.048443        -1.543977         1.264279
 H        -0.496717         0.086290         0.904960
 H         1.777134         0.127102        -1.942794
 H         1.478202         1.833283        -0.916275
 H         4.511626         0.218734        -2.306398
 H         5.309412        -0.372605        -0.770464
 H         3.216382        -1.516354         0.860467
 H         3.986953         1.189805         1.714993
 H         2.867133         2.246696         0.854092
