19
Iteration:   502
 C         0.213983        -0.728059         0.642203
 C         1.530640        -0.235706         0.158444
 C         2.095203        -0.495423        -1.210174
 C         3.352023         0.366618        -0.532954
 C         4.617996        -0.377721        -0.533372
 O         4.030877        -1.451442         0.441591
 C         2.968219        -0.327396         0.769691
 C         2.596227         1.746999        -0.366069
 O         1.363368         1.294645         0.192324
 H         0.112477        -1.788143         0.810067
 H         0.083479        -0.225675         1.603235
 H        -0.509270        -0.365332        -0.053713
 H         2.204397        -1.499958        -1.531687
 H         1.542368         0.002493        -1.968889
 H         4.959937        -0.802403        -1.522040
 H         5.418237         0.117061         0.019040
 H         3.077561         0.154243         1.726399
 H         3.029113         2.411868         0.497826
 H         2.440780         2.302714        -1.282631
