19
Iteration:  3104
 C         0.057223        -0.689836         0.576672
 C         1.444366        -0.127781         0.258991
 C         1.874176         0.920815        -0.755488
 C         3.355638         0.520496        -0.314813
 C         4.370774        -0.085975        -1.290178
 O         3.512155        -1.392588        -1.371807
 C         2.836741        -0.868622        -0.089214
 C         3.265834         1.131888         1.089426
 O         2.003282         0.524466         1.482146
 H        -0.191697        -1.522069        -0.095515
 H         0.109044        -1.100132         1.596369
 H        -0.741320         0.011663         0.410581
 H         1.745493         0.592533        -1.809800
 H         1.569132         1.903287        -0.666796
 H         4.682647         0.356094        -2.237471
 H         5.251348        -0.357899        -0.766199
 H         2.979764        -1.555390         0.727142
 H         3.902130         0.827322         1.942021
 H         3.149055         2.293983         0.982627
