19
Iteration:  4119charge 0 multiplicity 1
 C         0.072930        -0.690040         0.381186
 C         1.534646        -0.115823         0.324635
 C         1.939525         1.025206        -0.601258
 C         3.421460         0.452697        -0.170374
 C         4.267418         0.026318        -1.383540
 O         3.212885        -1.073026        -1.583867
 C         2.778676        -0.926946        -0.189142
 C         3.398002         0.920006         1.275410
 O         2.114426         0.276988         1.636287
 H        -0.108925        -0.785415        -0.783320
 H         0.115383        -1.762122         0.774937
 H        -0.704336        -0.034209         0.844456
 H         1.742514         0.824140        -1.639935
 H         1.745751         2.015771        -0.205369
 H         4.294620         0.738735        -2.257661
 H         5.277062        -0.424888        -1.153586
 H         3.094657        -1.666409         0.406626
 H         4.266767         0.653134         1.861254
 H         3.240893         2.052036         1.230218
