19
Iteration:  3171charge 0 multiplicity 1
 C         0.112701        -0.788313         0.431722
 C         1.523285        -0.120094         0.280873
 C         1.959871         0.913490        -0.765030
 C         3.393358         0.583976        -0.266079
 C         4.253370        -0.135942        -1.369168
 O         3.372646        -1.306979        -1.292510
 C         2.828857        -0.851486        -0.063807
 C         3.305917         1.077367         1.144790
 O         1.981100         0.553224         1.538757
 H         0.019268        -1.870030         0.738641
 H        -0.519821        -0.144430         1.004530
 H        -0.353638        -0.759838        -0.610402
 H         1.882573         0.604030        -1.853395
 H         1.587416         1.886565        -0.602605
 H         4.381502         0.411654        -2.305226
 H         5.222317        -0.458874        -1.069486
 H         3.272425        -1.459398         0.742900
 H         4.143332         0.614442         1.752282
 H         3.330017         2.263498         1.106656
