19
Iteration:  3204charge 0 multiplicity 1
 C         0.217517        -0.757486         0.454292
 C         1.485069        -0.102613         0.220914
 C         1.917894         1.014254        -0.787600
 C         3.349532         0.548492        -0.252726
 C         4.216793        -0.113174        -1.290476
 O         3.425966        -1.315527        -1.303185
 C         2.735090        -0.917186        -0.102865
 C         3.312139         1.058137         1.095872
 O         2.040994         0.502703         1.550907
 H         0.047804        -1.197426         1.467443
 H        -0.551805        -0.042501         0.332428
 H         0.145694        -1.516541        -0.399533
 H         1.707938         0.893135        -1.913231
 H         1.463471         1.917886        -0.453499
 H         4.299830         0.428829        -2.234322
 H         5.162064        -0.481466        -0.931098
 H         3.082442        -1.538452         0.735015
 H         4.199123         0.709630         1.743113
 H         3.319601         2.239336         1.200135
