19
Iteration:   418charge 0 multiplicity 1
 C         0.268206        -0.899174         0.751894
 C         1.507904        -0.218346         0.127959
 C         2.134694        -0.419228        -1.298718
 C         3.288098         0.338165        -0.513222
 C         4.604766        -0.476938        -0.446696
 O         3.938958        -1.326136         0.542477
 C         2.927569        -0.247094         0.764773
 C         2.674941         1.731799        -0.480477
 O         1.400221         1.307332         0.130919
 H        -0.641964        -0.217385         0.563107
 H         0.068401        -1.858131         0.327420
 H         0.478747        -1.056809         1.839885
 H         2.484264        -1.431917        -1.584777
 H         1.642871         0.162004        -2.115132
 H         4.783390        -1.075737        -1.309310
 H         5.506683         0.102370        -0.163429
 H         3.011776         0.351548         1.659316
 H         3.063208         2.493777         0.141329
 H         2.455831         2.316517        -1.422328
