19
Iteration:  2389
 C         0.121200        -0.722421         0.496529
 C         1.517762        -0.152781         0.229070
 C         1.931420         0.668703        -1.044631
 C         3.385752         0.528024        -0.327724
 C         4.339252        -0.260821        -1.179555
 O         3.525997        -1.454459        -0.997221
 C         2.890116        -0.845531         0.161930
 C         3.112059         1.437505         0.885691
 O         1.930532         0.694662         1.356435
 H        -0.528104        -0.442830        -0.306886
 H         0.081157        -1.744393         0.634232
 H        -0.206305        -0.215485         1.372212
 H         1.726948         0.102247        -1.963761
 H         1.438192         1.714797        -1.106378
 H         4.471663         0.018296        -2.194034
 H         5.268967        -0.457045        -0.695232
 H         3.330196        -1.300536         1.126510
 H         3.913578         1.333897         1.570138
 H         2.788460         2.488196         0.723348
