19
Iteration:  2842charge 0 multiplicity 1
 C         0.147244        -0.717611         0.547330
 C         1.508464        -0.139688         0.194780
 C         2.010262         0.770123        -0.978310
 C         3.397938         0.632967        -0.315852
 C         4.299013        -0.163589        -1.240816
 O         3.396337        -1.354420        -1.229587
 C         2.881773        -0.867874         0.074314
 C         3.211420         1.185014         1.127719
 O         1.906438         0.602368         1.394340
 H         0.352813        -1.755057         0.660221
 H        -0.072106        -0.502139         1.627660
 H        -0.718089        -0.541011        -0.091699
 H         1.805500         0.205350        -2.025355
 H         1.484804         1.851321        -1.087951
 H         4.286539         0.250656        -2.294460
 H         5.332326        -0.452586        -0.903065
 H         3.407271        -1.305156         0.924027
 H         3.927945         0.863333         1.851636
 H         3.029012         2.203435         1.347411
