19
Iteration:  4878
 C         0.065365        -0.696401         0.391887
 C         1.519751        -0.112752         0.326369
 C         1.995127         0.991068        -0.649728
 C         3.403722         0.509440        -0.195758
 C         4.226596         0.029767        -1.390151
 O         3.190192        -1.029848        -1.539983
 C         2.820496        -0.940582        -0.154877
 C         3.416249         0.839883         1.261038
 O         2.110225         0.309270         1.591118
 H        -0.010739        -1.356183        -0.530859
 H        -0.032893        -1.371364         1.298835
 H        -0.837582         0.080540         0.294156
 H         1.768088         0.778466        -1.612659
 H         1.833270         1.988140        -0.290775
 H         4.207218         0.810203        -2.149118
 H         5.286180        -0.188178        -1.095977
 H         3.138571        -1.733927         0.451831
 H         4.158185         0.334917         1.857984
 H         3.468110         1.916332         1.448205
