19
Iteration:   382
 C         0.274259        -0.813029         0.689064
 C         1.521523        -0.175916         0.189660
 C         2.126100        -0.589622        -1.161480
 C         3.261812         0.316522        -0.581513
 C         4.577571        -0.345024        -0.436001
 O         3.943318        -1.346075         0.468519
 C         2.929391        -0.250038         0.807573
 C         2.687669         1.767469        -0.422519
 O         1.391861         1.281787         0.021374
 H        -0.130767        -0.287899         1.502566
 H        -0.465660        -0.919641        -0.121097
 H         0.509192        -1.800351         1.041261
 H         2.396254        -1.619657        -1.181333
 H         1.553768        -0.280012        -2.013919
 H         5.026119        -0.821746        -1.304312
 H         5.332368         0.276803         0.011005
 H         3.223962         0.194249         1.742991
 H         3.133904         2.232638         0.360268
 H         2.669439         2.328191        -1.324727
