19
Iteration:   646
 C         0.065654        -0.809510         0.626938
 C         1.506556        -0.237439         0.218712
 C         1.997796        -0.325846        -1.237169
 C         3.268552         0.377267        -0.679930
 C         4.580898        -0.375887        -0.527018
 O         4.062478        -1.407835         0.339028
 C         2.919783        -0.448732         0.745020
 C         2.800518         1.761583        -0.259780
 O         1.491054         1.259577         0.318061
 H        -0.475153        -1.043087        -0.320726
 H         0.115031        -1.635777         1.283969
 H        -0.418505        -0.009600         1.245499
 H         2.221067        -1.416799        -1.568943
 H         1.450428         0.167418        -2.080659
 H         5.075177        -0.798835        -1.432826
 H         5.323740         0.243384         0.086484
 H         3.248918         0.075140         1.630657
 H         3.548062         2.144601         0.577851
 H         2.536643         2.538741        -1.003033
