19
Iteration:  3575
 C         0.047443        -0.638759         0.454636
 C         1.469518        -0.239408         0.291372
 C         1.922890         0.923365        -0.583820
 C         3.392797         0.459453        -0.191345
 C         4.259784         0.064025        -1.313070
 O         3.349624        -1.077819        -1.551603
 C         2.808690        -0.997022        -0.206556
 C         3.390670         0.971422         1.128481
 O         2.100183         0.362123         1.610654
 H        -0.288748        -0.516801         1.478924
 H        -0.689063         0.246798        -0.000194
 H        -0.129875        -1.589917        -0.168853
 H         1.814823         0.748357        -1.626779
 H         1.711557         1.893088        -0.211350
 H         4.311534         0.797870        -2.128236
 H         5.223259        -0.309204        -0.985719
 H         3.167976        -1.847807         0.392653
 H         4.072960         0.680043         1.817202
 H         3.265780         2.000725         1.086524
