19
Iteration:  4914
 C         0.126625        -0.514217         0.520615
 C         1.525952        -0.214823         0.280178
 C         1.947479         0.986448        -0.638464
 C         3.353590         0.491665        -0.267626
 C         4.294483         0.049382        -1.354949
 O         3.309879        -1.051521        -1.575458
 C         2.838582        -0.970641        -0.196747
 C         3.264069         0.869691         1.241811
 O         2.068943         0.237075         1.602898
 H        -0.345957        -0.715284        -0.509159
 H         0.081921        -1.456242         1.061486
 H        -0.355691         0.353263         1.166890
 H         1.648929         0.911360        -1.658384
 H         1.699823         1.951892        -0.221018
 H         4.267309         0.545941        -2.325281
 H         5.284364        -0.327305        -1.205382
 H         3.312527        -1.862454         0.459274
 H         4.126055         0.462646         1.895856
 H         3.164769         1.966627         1.430660
