19
Iteration:  4749charge 0 multiplicity 1
 C         0.121339        -0.640551         0.489196
 C         1.490298        -0.121967         0.223383
 C         1.949417         1.033174        -0.644271
 C         3.382699         0.591174        -0.178771
 C         4.177318         0.023211        -1.403862
 O         3.373604        -1.162974        -1.533838
 C         2.714602        -0.860699        -0.234738
 C         3.389942         0.826702         1.278251
 O         2.111256         0.213367         1.593541
 H        -0.461226        -0.578735        -0.377996
 H        -0.036853        -1.551234         0.840725
 H        -0.286406        -0.033953         1.163989
 H         1.687342         0.909684        -1.616698
 H         1.657289         2.120914        -0.462355
 H         4.199400         0.730262        -2.201940
 H         5.174736        -0.041350        -0.990508
 H         3.027025        -1.545818         0.643585
 H         4.332758         0.250737         1.638361
 H         3.398295         1.885814         1.608549
