19
Iteration:  1331
 C         0.188385        -0.847573         0.565405
 C         1.476562        -0.131498         0.143193
 C         2.038147         0.208198        -1.236868
 C         3.367354         0.468210        -0.389888
 C         4.531411        -0.483306        -0.929613
 O         3.723568        -1.544677        -0.286738
 C         2.972350        -0.688111         0.529225
 C         2.851577         1.787063         0.344756
 O         1.603152         1.134714         0.818147
 H        -0.576460        -0.069089         0.956868
 H        -0.259294        -1.556329        -0.206651
 H         0.555882        -1.399687         1.459079
 H         2.154979        -0.678766        -1.927976
 H         1.534012         1.047627        -1.683427
 H         4.563281        -0.830354        -2.005225
 H         5.529407        -0.469406        -0.358234
 H         3.233841        -0.756730         1.587242
 H         3.452577         2.161873         1.330296
 H         2.629092         2.542794        -0.400276
