19
Iteration:  4849charge 0 multiplicity 1
 C         0.197640        -0.770976         0.407168
 C         1.540893        -0.073901         0.259579
 C         1.909770         1.152933        -0.570908
 C         3.378848         0.594649        -0.176111
 C         4.210242        -0.074807        -1.384614
 O         3.214734        -1.163084        -1.588493
 C         2.782295        -0.872597        -0.259334
 C         3.486084         0.826012         1.338429
 O         2.024910         0.353847         1.585174
 H         0.040421        -1.497567        -0.394547
 H         0.152265        -1.298021         1.298806
 H        -0.715184        -0.256189         0.219900
 H         1.749247         1.065920        -1.670997
 H         1.651314         2.115404        -0.054066
 H         4.236206         0.604706        -2.218119
 H         5.182695        -0.241042        -1.087056
 H         3.145666        -1.757975         0.498554
 H         4.184031         0.136402         1.953446
 H         3.619735         1.877464         1.687064
