19
Iteration:  2938charge 0 multiplicity 1
 C         0.076347        -0.735314         0.546409
 C         1.515827        -0.154874         0.230948
 C         1.976667         0.847050        -0.907263
 C         3.367554         0.495107        -0.236794
 C         4.311351        -0.100793        -1.295844
 O         3.446322        -1.321205        -1.245605
 C         2.882348        -0.939041         0.001960
 C         3.256569         1.201437         1.087268
 O         1.936316         0.567504         1.454159
 H        -0.226789        -0.310808         1.515464
 H        -0.632686        -0.267775        -0.317245
 H        -0.173397        -1.850935         0.568647
 H         1.894576         0.373069        -1.959516
 H         1.643296         1.794010        -0.895916
 H         4.169842         0.402198        -2.270682
 H         5.334690        -0.325406        -1.164671
 H         3.290233        -1.429152         0.885938
 H         4.030989         1.134824         1.872279
 H         3.065177         2.346333         0.870103
