19
Iteration:  2277charge 0 multiplicity 1
 C         0.126911        -0.855590         0.399407
 C         1.521080        -0.157836         0.317971
 C         1.825525         0.627237        -0.979155
 C         3.353407         0.526943        -0.355014
 C         4.434900        -0.300405        -1.119738
 O         3.491107        -1.428443        -1.047373
 C         2.893923        -0.823876         0.209884
 C         3.252288         1.394554         0.833209
 O         1.856167         0.955668         1.353873
 H        -0.430339        -0.527919         1.180525
 H        -0.402530        -0.729315        -0.557265
 H         0.215728        -1.908053         0.591597
 H         1.648937        -0.217151        -1.782683
 H         1.261501         1.555795        -1.203016
 H         4.703605        -0.120699        -2.163224
 H         5.279574        -0.390391        -0.486462
 H         3.434704        -1.297553         1.100939
 H         3.891062         1.014724         1.568598
 H         3.100367         2.441233         0.732014
