19
Iteration:  3433
 C         0.120265        -0.663049         0.532826
 C         1.515751        -0.094515         0.286610
 C         1.895658         1.009219        -0.677997
 C         3.346233         0.492518        -0.260795
 C         4.237735        -0.029126        -1.374357
 O         3.475980        -1.250838        -1.455178
 C         2.797730        -0.966040        -0.148385
 C         3.352371         0.936075         1.201708
 O         1.969461         0.432310         1.519189
 H        -0.187499        -1.039383        -0.400497
 H         0.069497        -1.485414         1.229431
 H        -0.525790         0.173937         0.744123
 H         1.753507         0.763379        -1.814241
 H         1.627524         2.081770        -0.437317
 H         4.136316         0.613540        -2.272517
 H         5.323230        -0.151228        -1.150328
 H         3.178936        -1.549611         0.686201
 H         4.070670         0.487787         1.880340
 H         3.393504         2.148501         1.349646
