19
Iteration:  2489charge 0 multiplicity 1
 C         0.015283        -0.790356         0.518097
 C         1.441001        -0.174919         0.274880
 C         1.960623         0.800477        -0.902528
 C         3.378760         0.476102        -0.299778
 C         4.372580        -0.234413        -1.190509
 O         3.575553        -1.471715        -1.082815
 C         2.898221        -0.911687         0.110068
 C         3.126048         1.451983         0.811335
 O         1.962203         0.720856         1.373066
 H        -0.068125        -1.862251         0.335371
 H        -0.129309        -0.537616         1.506953
 H        -0.647642        -0.282978        -0.136051
 H         1.776859         0.387229        -1.916093
 H         1.796212         1.973461        -0.943824
 H         4.445189         0.131525        -2.195941
 H         5.329543        -0.547189        -0.826387
 H         3.070631        -1.566002         1.055358
 H         3.679941         1.525414         1.732045
 H         2.993824         2.556602         0.448763
