19
Iteration:  3530charge 0 multiplicity 1
 C         0.194966        -0.684678         0.486544
 C         1.535156        -0.127454         0.198366
 C         1.955766         1.030405        -0.717507
 C         3.348704         0.556996        -0.228686
 C         4.249593         0.082679        -1.371636
 O         3.306745        -1.202898        -1.419796
 C         2.793751        -0.861854        -0.136378
 C         3.349847         0.855244         1.255383
 O         2.010934         0.329173         1.523436
 H         0.328746        -1.563414         1.127482
 H        -0.399325         0.041642         1.355827
 H        -0.327177        -0.775352        -0.504911
 H         1.732815         0.589389        -1.722237
 H         1.575150         1.966758        -0.585632
 H         4.185840         0.450350        -2.395205
 H         5.172012        -0.329466        -1.057944
 H         3.224381        -1.546118         0.593601
 H         4.037736         0.254284         1.710672
 H         3.406853         1.850254         1.540236
