19
Iteration:  3733
 C         0.023317        -0.695647         0.537220
 C         1.451506        -0.140263         0.316117
 C         1.964743         1.080771        -0.614224
 C         3.349731         0.476551        -0.233296
 C         4.276459         0.058655        -1.374181
 O         3.416667        -1.105202        -1.578002
 C         2.766893        -0.858020        -0.219731
 C         3.447207         0.781003         1.192673
 O         2.031328         0.301662         1.605675
 H        -0.459157        -0.783124        -0.534181
 H        -0.055776        -1.734375         1.014711
 H        -0.532627         0.087483         1.182846
 H         1.769744         1.019304        -1.756983
 H         1.750786         2.103965        -0.229376
 H         4.229032         0.668191        -2.254446
 H         5.317249        -0.190838        -1.175578
 H         3.019263        -1.675218         0.483791
 H         4.145849         0.244275         1.689448
 H         3.446826         1.851580         1.435561
