19
Iteration:  4183charge 0 multiplicity 1
 C         0.013428        -0.647683         0.508011
 C         1.404451        -0.148841         0.201463
 C         1.951738         0.991410        -0.591219
 C         3.346308         0.529278        -0.256716
 C         4.269746         0.057815        -1.324403
 O         3.450109        -1.091701        -1.577520
 C         2.719010        -0.923362        -0.228007
 C         3.444191         0.752782         1.214915
 O         2.099700         0.406251         1.651683
 H        -0.686141        -0.853716        -0.318111
 H         0.135162        -1.654605         0.851134
 H        -0.457926        -0.234811         1.319798
 H         1.624479         0.906749        -1.636984
 H         1.671605         2.135317        -0.443506
 H         4.327706         0.667309        -2.173078
 H         5.267519        -0.242614        -1.039399
 H         3.031415        -1.950795         0.314546
 H         4.177746         0.173953         1.715946
 H         3.484295         1.862087         1.487130
