19
Iteration:   497charge 0 multiplicity 1
 C         0.210382        -0.722828         0.640915
 C         1.527257        -0.218067         0.195672
 C         2.081563        -0.487363        -1.194870
 C         3.298411         0.323148        -0.512843
 C         4.615840        -0.410464        -0.522044
 O         4.073782        -1.418816         0.414339
 C         2.948848        -0.361346         0.779632
 C         2.615396         1.789344        -0.373856
 O         1.371004         1.310135         0.153276
 H         0.235765        -1.855246         0.479551
 H         0.114526        -0.400068         1.747427
 H        -0.601896        -0.283717        -0.018266
 H         2.241561        -1.605714        -1.331102
 H         1.495402         0.047378        -2.003994
 H         5.009696        -0.631717        -1.539647
 H         5.422275         0.083732         0.076207
 H         3.072768         0.083599         1.812986
 H         2.992667         2.289649         0.510086
 H         2.486766         2.254793        -1.394160
