19
Iteration:  4362
 C         0.086592        -0.631740         0.395721
 C         1.573949        -0.239815         0.354017
 C         1.963282         0.983083        -0.622108
 C         3.361926         0.594267        -0.214150
 C         4.222641        -0.031695        -1.352887
 O         3.215488        -1.061747        -1.629841
 C         2.875694        -0.912023        -0.205652
 C         3.370423         0.912223         1.253285
 O         2.072680         0.307030         1.664607
 H        -0.334340        -0.235823        -0.491697
 H        -0.044262        -1.743061         0.380512
 H        -0.481086        -0.196354         1.179520
 H         1.880929         0.629446        -1.766842
 H         1.715905         1.972013        -0.287319
 H         4.372604         0.647142        -2.238839
 H         5.151702        -0.476339        -1.080585
 H         3.257863        -1.831976         0.548626
 H         4.135667         0.418611         1.850696
 H         3.432056         1.975206         1.605668
