19
Iteration:  1031charge 0 multiplicity 1
 C         0.267335        -0.812474         0.596483
 C         1.518613        -0.145573         0.153763
 C         2.005665        -0.089602        -1.268694
 C         3.292700         0.471549        -0.441253
 C         4.478372        -0.380717        -0.739483
 O         3.795092        -1.582672        -0.084765
 C         2.965931        -0.570009         0.637874
 C         2.865355         1.737448         0.087708
 O         1.513048         1.239698         0.622397
 H         0.616055        -1.863016         0.723073
 H         0.055366        -0.321370         1.582332
 H        -0.578682        -0.722771        -0.134427
 H         2.136522        -1.111968        -1.754809
 H         1.752902         0.655075        -2.017746
 H         4.681250        -0.626246        -1.753530
 H         5.350366        -0.191903        -0.119273
 H         3.227411        -0.459878         1.683789
 H         3.513173         2.092430         0.972316
 H         2.736987         2.697981        -0.531054
