19
Iteration:  1818charge 0 multiplicity 1
 C         0.282801        -0.805820         0.580345
 C         1.531747        -0.190325         0.252984
 C         1.939569         0.295944        -1.247290
 C         3.304328         0.564696        -0.420052
 C         4.425346        -0.255604        -1.003700
 O         3.511751        -1.512357        -0.673403
 C         2.929334        -0.705888         0.363554
 C         3.115382         1.520008         0.650387
 O         1.715096         1.009925         1.067561
 H        -0.504973        -0.162181         0.013595
 H         0.338212        -1.836571         0.167906
 H        -0.128339        -0.767246         1.613280
 H         2.019596        -0.528426        -1.940687
 H         1.422771         1.144192        -1.710530
 H         4.633872        -0.229035        -2.055135
 H         5.216210        -0.396969        -0.328932
 H         3.376115        -0.876860         1.315251
 H         3.746105         1.185369         1.559077
 H         3.059057         2.616347         0.508865
