19
Iteration:  2940charge 0 multiplicity 1
 C         0.068930        -0.736407         0.542983
 C         1.499880        -0.153011         0.227265
 C         1.973813         0.825105        -0.888205
 C         3.390267         0.479602        -0.232845
 C         4.321517        -0.094629        -1.288288
 O         3.455047        -1.317080        -1.237297
 C         2.884473        -0.927078        -0.015271
 C         3.248907         1.198699         1.058076
 O         1.939521         0.579692         1.455332
 H        -0.214684        -0.326939         1.544160
 H        -0.627354        -0.291725        -0.347295
 H        -0.194906        -1.870563         0.664172
 H         1.863015         0.414036        -1.973254
 H         1.571772         1.948171        -0.751489
 H         4.172734         0.413516        -2.279486
 H         5.379685        -0.339156        -1.206823
 H         3.159417        -1.490101         0.869342
 H         4.002870         1.100355         1.829154
 H         3.080566         2.303530         0.879124
