19
Iteration:  2788charge 0 multiplicity 1
 C         0.113965        -0.733431         0.458103
 C         1.445222        -0.095988         0.306749
 C         1.968574         0.754663        -0.870421
 C         3.320775         0.518567        -0.344795
 C         4.315586        -0.133698        -1.246298
 O         3.537760        -1.371573        -1.200933
 C         2.851023        -0.956244        -0.000163
 C         3.230008         1.274639         0.977014
 O         1.952126         0.651633         1.513652
 H        -0.318465        -1.098351        -0.453507
 H         0.031583        -1.508831         1.250704
 H        -0.479648         0.128332         0.806162
 H         1.751767         0.124456        -1.892511
 H         1.438900         1.838625        -0.913286
 H         4.541491         0.226246        -2.307739
 H         5.313981        -0.387877        -0.743642
 H         3.202821        -1.625515         0.883128
 H         4.013844         1.152270         1.758251
 H         2.883493         2.303143         0.809046
