19
Iteration:  2319charge 0 multiplicity 1
 C         0.119145        -0.801172         0.597763
 C         1.470121        -0.153240         0.103908
 C         1.993692         0.740641        -1.014692
 C         3.387458         0.531646        -0.312940
 C         4.373910        -0.288622        -1.210446
 O         3.566636        -1.498723        -0.966776
 C         2.870098        -0.873868         0.175371
 C         3.128403         1.459639         0.929562
 O         1.841481         0.758585         1.290354
 H        -0.501803         0.064327         0.757242
 H        -0.411352        -1.501824        -0.140424
 H         0.348223        -1.234354         1.588933
 H         1.929609         0.402143        -2.120170
 H         1.728825         1.815736        -1.063020
 H         4.133351         0.063535        -2.267681
 H         5.457462        -0.460889        -1.031531
 H         3.005758        -1.379305         1.102245
 H         3.930219         1.441372         1.812886
 H         2.893539         2.423046         0.524721
