19
Iteration:   576charge 0 multiplicity 1
 C         0.259134        -0.920468         0.680277
 C         1.480189        -0.150706         0.225527
 C         2.079978        -0.375145        -1.185910
 C         3.278495         0.356661        -0.598751
 C         4.644757        -0.443168        -0.477349
 O         3.861910        -1.444210         0.322427
 C         2.950402        -0.221800         0.772117
 C         2.750406         1.782488        -0.296677
 O         1.441849         1.278243         0.162102
 H        -0.196950        -0.421788         1.528518
 H        -0.553043        -0.960757        -0.142621
 H         0.596695        -1.940459         0.917545
 H         2.203877        -1.313074        -1.647710
 H         1.546591         0.190947        -1.931467
 H         4.852042        -0.892592        -1.467950
 H         5.485911         0.076932         0.019781
 H         3.210300        -0.064013         1.848952
 H         3.345431         2.392026         0.353444
 H         2.481511         2.449206        -1.091156
