19
Iteration:  1444
 C         0.099625        -0.785219         0.531740
 C         1.448028        -0.161083         0.176580
 C         2.017386         0.137284        -1.174893
 C         3.282455         0.506455        -0.437977
 C         4.503627        -0.314813        -0.923143
 O         3.759016        -1.586807        -0.428300
 C         3.001252        -0.724681         0.478715
 C         2.919895         1.647099         0.425029
 O         1.670932         1.155709         0.920875
 H         0.301426        -1.765161         0.899586
 H        -0.356123        -0.174004         1.291285
 H        -0.666350        -0.779783        -0.270859
 H         2.120468        -0.702982        -1.774982
 H         1.531143         0.979161        -1.753487
 H         4.741951        -0.367007        -2.027846
 H         5.389266        -0.370511        -0.267146
 H         3.466557        -0.817840         1.455386
 H         3.659611         1.800291         1.316008
 H         2.820142         2.619867        -0.093743
