19
Iteration:  1556
 C         0.155257        -0.791225         0.576818
 C         1.484238        -0.157059         0.250302
 C         1.931342         0.270530        -1.147210
 C         3.281318         0.494508        -0.491061
 C         4.473350        -0.286377        -0.887746
 O         3.751780        -1.570221        -0.521236
 C         2.918183        -0.826293         0.427245
 C         2.990660         1.588415         0.469876
 O         1.717442         1.125988         0.922102
 H        -0.653154        -0.086831         0.379757
 H         0.029846        -1.644482        -0.099363
 H         0.095927        -1.163175         1.577226
 H         1.729111        -0.580532        -1.844245
 H         1.537181         1.184805        -1.591591
 H         4.704163        -0.244664        -1.964560
 H         5.385885        -0.057999        -0.260824
 H         3.314013        -0.971817         1.473295
 H         3.686155         1.845259         1.212341
 H         3.007407         2.499457        -0.107920
