19
Iteration:  4865
 C         0.202202        -0.749529         0.349582
 C         1.505058        -0.109437         0.273408
 C         1.981655         1.066506        -0.550537
 C         3.396378         0.469512        -0.226074
 C         4.205354         0.058556        -1.398350
 O         3.254328        -1.067554        -1.555573
 C         2.727512        -0.874095        -0.117322
 C         3.425208         0.794276         1.226072
 O         2.048680         0.355997         1.645988
 H         0.096972        -1.540792        -0.405831
 H         0.008709        -1.219191         1.384912
 H        -0.598503         0.067156         0.338682
 H         1.662437         1.043888        -1.689967
 H         1.654791         2.070337        -0.268503
 H         4.342291         0.533628        -2.410548
 H         5.104301        -0.661309        -1.203631
 H         3.060234        -1.623463         0.469158
 H         4.157177         0.192621         1.682026
 H         3.495811         1.831449         1.533145
