19
Iteration:  3213charge 0 multiplicity 1
 C         0.137008        -0.762559         0.469747
 C         1.524741        -0.172606         0.240171
 C         1.949580         0.976236        -0.783949
 C         3.343796         0.579121        -0.306064
 C         4.271147        -0.073293        -1.289123
 O         3.350929        -1.290613        -1.325833
 C         2.776220        -0.878562        -0.095504
 C         3.340522         1.049680         1.168313
 O         2.045270         0.510806         1.511141
 H         0.046259        -0.988203         1.507806
 H        -0.545835        -0.030985         0.153985
 H        -0.069176        -1.623955        -0.106471
 H         1.823365         0.512590        -1.925294
 H         1.534660         2.006907        -0.632484
 H         4.313688         0.265110        -2.365365
 H         5.273685        -0.314334        -0.828935
 H         3.088098        -1.498516         0.752350
 H         4.057414         0.662121         1.868694
 H         3.178608         2.045433         1.324282
