19
Iteration:   718
 C         0.293901        -0.830169         0.707909
 C         1.542113        -0.232308         0.138972
 C         2.088969        -0.180412        -1.284155
 C         3.318210         0.423218        -0.477910
 C         4.560262        -0.508784        -0.540144
 O         3.867442        -1.454962         0.215088
 C         2.921137        -0.424239         0.723776
 C         2.760969         1.793193        -0.244850
 O         1.435368         1.274861         0.344044
 H         0.506137        -1.356433         1.644518
 H        -0.559501        -0.118192         0.697065
 H         0.021546        -1.621253         0.005293
 H         2.247370        -1.096941        -1.772460
 H         1.404685         0.425345        -1.854353
 H         4.716469        -0.933636        -1.542462
 H         5.489168        -0.230122        -0.108978
 H         2.978776        -0.193215         1.815494
 H         3.114558         2.272046         0.624893
 H         2.565373         2.442600        -1.166244
