19
Iteration:   503
 C         0.215444        -0.728211         0.646232
 C         1.529670        -0.240029         0.150516
 C         2.099109        -0.493084        -1.211916
 C         3.358654         0.377723        -0.538806
 C         4.621745        -0.372762        -0.536447
 O         4.019705        -1.454527         0.446226
 C         2.971630        -0.321803         0.768074
 C         2.596799         1.738103        -0.360566
 O         1.361757         1.288040         0.200256
 H         0.088437        -1.778563         0.880244
 H         0.064310        -0.203697         1.549591
 H        -0.503594        -0.381024        -0.062793
 H         2.216028        -1.498454        -1.571569
 H         1.547614         0.003462        -1.978461
 H         4.940136        -0.838460        -1.480461
 H         5.419079         0.124436        -0.003080
 H         3.093094         0.160457         1.710685
 H         3.039384         2.423687         0.436284
 H         2.433970         2.322228        -1.255036
