19
Iteration:  2924
 C         0.156465        -0.646665         0.478980
 C         1.520840        -0.165060         0.260719
 C         1.977776         0.760393        -0.945654
 C         3.366342         0.579013        -0.281893
 C         4.216931        -0.130446        -1.316130
 O         3.419874        -1.348947        -1.294048
 C         2.903030        -0.874047         0.074700
 C         3.197894         1.235406         1.126542
 O         1.958680         0.544654         1.484850
 H        -0.130506        -0.638893         1.548235
 H        -0.535568        -0.194567        -0.178523
 H         0.254049        -1.691818         0.322004
 H         1.968308         0.203741        -1.820589
 H         1.591064         1.759541        -1.043545
 H         4.396486         0.254161        -2.308598
 H         5.196952        -0.342800        -0.831928
 H         3.303279        -1.570231         0.913267
 H         3.944830         0.797978         1.858023
 H         3.036488         2.364236         1.278428
