19
Iteration:  2651
 C         0.049405        -0.763527         0.495948
 C         1.432088        -0.133822         0.161573
 C         1.879228         0.750283        -0.964431
 C         3.293176         0.453746        -0.330368
 C         4.378465        -0.161242        -1.246320
 O         3.626350        -1.445033        -1.097547
 C         2.872208        -0.939834         0.112742
 C         3.260167         1.321132         0.980669
 O         1.928577         0.807769         1.469954
 H        -0.439787        -0.416925         1.472680
 H        -0.666456        -0.533667        -0.257387
 H         0.134230        -1.857769         0.572656
 H         1.720314         0.241350        -1.892553
 H         1.510956         1.761443        -0.962150
 H         4.315896         0.103790        -2.292206
 H         5.441802        -0.198360        -0.938137
 H         3.098406        -1.559521         0.872743
 H         3.999283         1.171072         1.719377
 H         3.190927         2.341446         0.792722
