19
Iteration:  2067
 C         0.210776        -0.694681         0.472152
 C         1.555085        -0.200392         0.184257
 C         1.917587         0.474161        -1.124788
 C         3.268731         0.539604        -0.423386
 C         4.388423        -0.264940        -1.033794
 O         3.562208        -1.513771        -0.850311
 C         2.941436        -0.812413         0.239003
 C         3.036832         1.466369         0.773910
 O         1.829318         0.884540         1.309205
 H        -0.484824         0.105696         0.220281
 H         0.022721        -1.602453        -0.018453
 H         0.112404        -0.882133         1.514725
 H         1.802714        -0.304538        -1.845308
 H         1.353249         1.481410        -1.356311
 H         4.794703        -0.075567        -2.081611
 H         5.156971        -0.294995        -0.254208
 H         3.456884        -1.149451         1.224853
 H         3.869296         1.404640         1.462542
 H         2.978542         2.469487         0.307652
