19
Iteration:   553charge 0 multiplicity 1
 C         0.317437        -0.876864         0.657918
 C         1.501401        -0.199334         0.169396
 C         2.043508        -0.320257        -1.259239
 C         3.228724         0.329824        -0.556646
 C         4.622335        -0.398997        -0.500696
 O         3.925111        -1.417337         0.463157
 C         2.938572        -0.447400         0.704346
 C         2.757870         1.746254        -0.359063
 O         1.387264         1.403738         0.227832
 H         0.517533        -0.949575         1.738618
 H        -0.744547        -0.373746         0.595979
 H         0.280966        -1.888294         0.204707
 H         2.333186        -1.358239        -1.419689
 H         1.527725        -0.090263        -2.210336
 H         4.932543        -0.852631        -1.485390
 H         5.412580         0.046740         0.114234
 H         3.030674         0.092010         1.707401
 H         3.309921         2.437478         0.268214
 H         2.634381         2.353659        -1.267069
