19
Iteration:  4110charge 0 multiplicity 1
 C         0.128208        -0.703709         0.300919
 C         1.475231        -0.066561         0.380553
 C         1.989042         1.007357        -0.512389
 C         3.425596         0.492482        -0.170278
 C         4.180993         0.024994        -1.351408
 O         3.244634        -1.087157        -1.596901
 C         2.788644        -0.955904        -0.219715
 C         3.405039         0.904904         1.222561
 O         2.127444         0.323410         1.613602
 H        -0.211231        -1.039950        -0.764910
 H         0.088844        -1.652071         0.998731
 H        -0.673494        -0.042793         0.789987
 H         1.603149         0.790912        -1.562442
 H         1.647586         1.927947        -0.391183
 H         4.243991         0.734372        -2.284724
 H         5.209374        -0.377494        -1.142296
 H         3.051906        -1.783722         0.440399
 H         4.128308         0.415675         1.924513
 H         3.402518         1.980621         1.477715
