19
Iteration:  2844
 C         0.162016        -0.722490         0.554504
 C         1.500177        -0.116141         0.195162
 C         1.999660         0.771603        -0.999026
 C         3.397126         0.628991        -0.302735
 C         4.296725        -0.171351        -1.246074
 O         3.401625        -1.360886        -1.235240
 C         2.877146        -0.859215         0.079069
 C         3.210996         1.180852         1.133174
 O         1.904103         0.593692         1.394102
 H         0.374906        -1.797564         0.635923
 H        -0.083715        -0.437402         1.554437
 H        -0.687142        -0.559072        -0.095024
 H         1.811592         0.258430        -1.976076
 H         1.459702         1.831983        -1.063178
 H         4.281431         0.276202        -2.267647
 H         5.343143        -0.469965        -0.922229
 H         3.423970        -1.322418         0.978917
 H         3.977800         0.878358         1.884940
 H         3.033663         2.246160         1.313369
