19
Iteration:  2662
 C         0.057584        -0.742223         0.506205
 C         1.451582        -0.157362         0.221707
 C         1.906139         0.770753        -0.960299
 C         3.366596         0.577122        -0.305804
 C         4.419927        -0.246801        -1.307701
 O         3.593255        -1.410873        -1.068382
 C         2.816181        -0.888889         0.099749
 C         3.189943         1.359403         0.983220
 O         1.917176         0.653279         1.403570
 H        -0.161788        -0.169833         1.482504
 H        -0.714038        -0.603290        -0.210264
 H         0.144360        -1.803303         0.769530
 H         1.759356         0.216854        -1.849278
 H         1.527917         1.773911        -1.059099
 H         4.434423         0.043959        -2.352916
 H         5.431969        -0.480783        -0.949381
 H         3.121016        -1.296900         0.981116
 H         3.956603         1.172686         1.681784
 H         2.997124         2.378590         0.859666
