19
Iteration:   993
 C         0.137520        -0.820557         0.631428
 C         1.487224        -0.201619         0.166418
 C         1.977544        -0.092724        -1.237407
 C         3.370041         0.453658        -0.489811
 C         4.567014        -0.402621        -0.691418
 O         3.823590        -1.539046        -0.051436
 C         3.015293        -0.611157         0.607452
 C         2.883665         1.812417         0.057357
 O         1.501069         1.237190         0.577138
 H        -0.416582        -1.417931        -0.094104
 H         0.282433        -1.508342         1.469090
 H        -0.566819        -0.092951         1.034892
 H         2.123260        -0.978878        -1.842535
 H         1.541486         0.771953        -1.786756
 H         4.877340        -0.665720        -1.749364
 H         5.513774        -0.033443        -0.241762
 H         3.218862        -0.334778         1.693897
 H         3.392410         2.144502         0.888729
 H         2.734745         2.483812        -0.742023
