19
Iteration:  1668
 C         0.290632        -0.817001         0.608564
 C         1.554710        -0.140903         0.154177
 C         1.955149         0.364010        -1.246852
 C         3.348351         0.546045        -0.481980
 C         4.458303        -0.396073        -0.981618
 O         3.570671        -1.557558        -0.508036
 C         2.924000        -0.687991         0.320829
 C         2.928006         1.628138         0.597441
 O         1.713635         0.977711         1.064080
 H         0.403081        -1.886786         0.775967
 H        -0.096044        -0.509521         1.561262
 H        -0.424459        -0.650670        -0.170906
 H         2.079758        -0.495932        -1.941959
 H         1.496291         1.271454        -1.763634
 H         4.684170        -0.396665        -2.062525
 H         5.461064        -0.327220        -0.443974
 H         3.128712        -0.957816         1.424765
 H         3.501747         1.776274         1.523164
 H         2.858695         2.681912         0.121627
