19
Iteration:  4941charge 0 multiplicity 1
 C        -0.004323        -0.631785         0.538782
 C         1.410215        -0.123297         0.190971
 C         1.916860         1.014831        -0.624296
 C         3.372470         0.560830        -0.266474
 C         4.243052         0.042391        -1.304918
 O         3.426284        -1.142730        -1.590060
 C         2.755875        -0.854684        -0.220474
 C         3.448369         0.840129         1.260506
 O         2.123241         0.256538         1.619906
 H        -0.747129        -0.628518        -0.212281
 H         0.200937        -1.669584         0.881922
 H        -0.364778        -0.024634         1.298370
 H         1.736630         0.703836        -1.803871
 H         1.566460         2.077392        -0.389471
 H         4.383993         0.500929        -2.316712
 H         5.288372        -0.282880        -1.022813
 H         2.944258        -1.797716         0.413059
 H         4.192625         0.366566         1.852186
 H         3.454733         1.925634         1.484133
