19
Iteration:  3449charge 0 multiplicity 1
 C         0.099796        -0.688616         0.475956
 C         1.502309        -0.185200         0.212725
 C         2.015887         0.943640        -0.776791
 C         3.410129         0.542523        -0.210280
 C         4.240816         0.050905        -1.380573
 O         3.278862        -1.233639        -1.433036
 C         2.861511        -0.865430        -0.076092
 C         3.307893         0.987201         1.247059
 O         2.032064         0.395806         1.533398
 H        -0.311160        -1.524072        -0.194767
 H         0.171963        -1.038333         1.563420
 H        -0.685737         0.094159         0.500437
 H         1.867324         0.721718        -1.788757
 H         1.707252         1.943244        -0.361450
 H         4.296120         0.574983        -2.356670
 H         5.275393        -0.357226        -1.259914
 H         3.161560        -1.696519         0.605425
 H         4.138053         0.480520         1.871914
 H         3.297654         1.960326         1.463784
