19
Iteration:  3877
 C         0.110920        -0.647392         0.593938
 C         1.480655        -0.100946         0.288132
 C         1.996992         1.041830        -0.573529
 C         3.347770         0.474246        -0.188652
 C         4.223761         0.092076        -1.356658
 O         3.411927        -1.110926        -1.623576
 C         2.712316        -0.956507        -0.271288
 C         3.370940         0.793339         1.214159
 O         2.045556         0.300095         1.534379
 H         0.099825        -1.626056        -0.093060
 H        -0.109622        -0.805264         1.653507
 H        -0.594365         0.194163         0.350237
 H         1.843907         0.954121        -1.580931
 H         1.769013         1.938866        -0.154294
 H         4.264033         0.885567        -2.136247
 H         5.212570        -0.158866        -0.987671
 H         2.959412        -1.870543         0.323895
 H         4.135922         0.370739         1.754265
 H         3.334870         1.900557         1.371430
