19
Iteration:  1700charge 0 multiplicity 1
 C         0.113397        -0.807784         0.632838
 C         1.483553        -0.191762         0.177942
 C         1.921193         0.435605        -1.170884
 C         3.333389         0.445122        -0.400206
 C         4.481327        -0.322954        -0.987331
 O         3.756751        -1.573738        -0.571479
 C         2.918031        -0.825202         0.340159
 C         3.026881         1.637091         0.466081
 O         1.716288         1.055832         1.081730
 H         0.282881        -1.734206         1.198813
 H        -0.538498        -0.095978         1.109496
 H        -0.390542        -1.156980        -0.261707
 H         1.954841        -0.217472        -2.071446
 H         1.491896         1.454900        -1.428631
 H         4.498617        -0.233892        -2.085008
 H         5.485016        -0.231894        -0.437555
 H         3.072097        -1.212443         1.410944
 H         3.521070         1.899913         1.455750
 H         2.881126         2.552615        -0.189066
