19
Iteration:   660
 C         0.179578        -0.775826         0.593317
 C         1.483987        -0.253118         0.154927
 C         2.018328        -0.441940        -1.215093
 C         3.258613         0.355745        -0.618021
 C         4.612598        -0.300394        -0.602421
 O         3.908108        -1.433654         0.340785
 C         2.991944        -0.377275         0.701678
 C         2.769376         1.712195        -0.197811
 O         1.520249         1.312513         0.356391
 H        -0.228966        -1.488325        -0.149241
 H         0.293051        -1.387865         1.567328
 H        -0.607211        -0.005377         0.580638
 H         2.188579        -1.549230        -1.490146
 H         1.237437         0.134121        -1.924820
 H         5.096014        -0.720716        -1.493353
 H         5.333240         0.292141         0.020850
 H         3.091792        -0.005495         1.760213
 H         3.397001         2.162772         0.684644
 H         2.730075         2.665455        -0.937702
