19
Iteration:   110charge 0 multiplicity 1
 C         0.255730        -0.861321         0.777906
 C         1.441581        -0.154471         0.130641
 C         2.204325        -0.720688        -1.148770
 C         3.261121         0.261233        -0.528935
 C         4.577474        -0.357618        -0.288032
 O         4.029150        -1.169132         0.675891
 C         2.932472        -0.180708         0.843652
 C         2.691207         1.606968        -0.697053
 O         1.309765         1.366179        -0.168509
 H         0.268293        -1.860529         0.376966
 H         0.303345        -0.809623         1.891161
 H        -0.708932        -0.474600         0.367939
 H         2.397183        -1.795948        -1.145004
 H         1.912311        -0.324236        -2.102358
 H         5.091637        -0.859908        -1.119108
 H         5.305380         0.382586         0.151693
 H         3.127500         0.403058         1.709666
 H         3.041154         2.337320        -0.103994
 H         2.623196         1.933183        -1.646964
