19
Iteration:  2171charge 0 multiplicity 1
 C         0.132142        -0.778798         0.452281
 C         1.454911        -0.106411         0.273008
 C         1.865870         0.627121        -0.999622
 C         3.306822         0.485505        -0.345762
 C         4.364883        -0.216203        -1.057731
 O         3.617373        -1.550707        -0.997116
 C         2.883316        -0.978899         0.239033
 C         3.163940         1.471497         0.732224
 O         1.878397         0.932632         1.306246
 H         0.379989        -1.907856         0.343462
 H        -0.289542        -0.744367         1.494828
 H        -0.548473        -0.368929        -0.353381
 H         1.818757         0.010448        -1.942361
 H         1.547306         1.604385        -1.139416
 H         4.742620         0.154507        -2.008472
 H         5.320447        -0.218453        -0.368636
 H         3.338345        -1.612885         0.973592
 H         3.901613         1.554615         1.535062
 H         2.948395         2.549976         0.561096
