19
Iteration:  1705charge 0 multiplicity 1
 C         0.146344        -0.778281         0.616074
 C         1.457823        -0.181118         0.233593
 C         1.911707         0.407436        -1.136354
 C         3.326853         0.440195        -0.406838
 C         4.510666        -0.266673        -0.997687
 O         3.746483        -1.567649        -0.584457
 C         2.893978        -0.870549         0.352644
 C         3.040910         1.617881         0.508091
 O         1.719043         1.066628         1.027510
 H         0.265374        -1.692896         1.206497
 H        -0.574919         0.003799         0.963639
 H        -0.197323        -1.170830        -0.393008
 H         1.868596        -0.329415        -1.929519
 H         1.438811         1.350131        -1.417986
 H         4.563997        -0.307343        -2.093130
 H         5.449041        -0.193213        -0.520960
 H         3.109359        -1.062132         1.394555
 H         3.618434         1.700134         1.396500
 H         2.711133         2.472896        -0.160122
