19
Iteration:  2142charge 0 multiplicity 1
 C         0.184478        -0.748975         0.516279
 C         1.485265        -0.161561         0.190851
 C         1.905087         0.565507        -1.109843
 C         3.432673         0.568822        -0.370429
 C         4.448209        -0.340773        -1.158511
 O         3.476630        -1.449596        -0.858550
 C         2.954734        -0.744241         0.267393
 C         3.052204         1.457383         0.859286
 O         1.830620         0.791752         1.236105
 H        -0.124148        -1.507413        -0.272717
 H         0.238453        -1.190517         1.478335
 H        -0.545457         0.051214         0.479934
 H         2.034718        -0.150878        -1.846337
 H         1.398588         1.554019        -1.382867
 H         4.446161        -0.136763        -2.253370
 H         5.388128        -0.576484        -0.752274
 H         3.351459        -1.232268         1.221029
 H         3.775683         1.261380         1.768380
 H         2.723524         2.479963         0.742138
