19
Iteration:  2843charge 0 multiplicity 1
 C         0.154358        -0.719870         0.550737
 C         1.503973        -0.128000         0.194935
 C         2.006233         0.770195        -0.988310
 C         3.397876         0.631683        -0.309647
 C         4.297538        -0.167385        -1.242875
 O         3.398789        -1.357869        -1.232742
 C         2.879278        -0.863691         0.077063
 C         3.211286         1.182978         1.130795
 O         1.905361         0.597917         1.394002
 H         0.365449        -1.771504         0.649909
 H        -0.076938        -0.472454         1.591276
 H        -0.702479        -0.550988        -0.091519
 H         1.804310         0.227574        -2.009256
 H         1.465935         1.851801        -1.077326
 H         4.281546         0.265137        -2.284103
 H         5.342080        -0.463358        -0.911908
 H         3.419459        -1.312893         0.953550
 H         3.951200         0.873586         1.868253
 H         3.030038         2.218376         1.332914
