19
Iteration:  3018
 C         0.179286        -0.749377         0.453287
 C         1.558490        -0.195721         0.239270
 C         1.948992         0.878615        -0.848715
 C         3.374937         0.532712        -0.244912
 C         4.278762        -0.110300        -1.262915
 O         3.339461        -1.355751        -1.294988
 C         2.829486        -0.918286        -0.032791
 C         3.253021         1.219301         1.123891
 O         1.978402         0.597273         1.474410
 H        -0.711327        -0.181221        -0.069779
 H         0.178158        -1.834435         0.047684
 H         0.015023        -0.705845         1.640953
 H         1.866430         0.532080        -1.809100
 H         1.620131         1.929220        -0.688224
 H         4.281038         0.505044        -2.181964
 H         5.276748        -0.513630        -1.004834
 H         3.278438        -1.554033         0.766170
 H         3.970255         0.910546         1.907508
 H         3.216504         2.337629         0.953272
