19
Iteration:  1807charge 0 multiplicity 1
 C         0.174773        -0.850887         0.557485
 C         1.494513        -0.124844         0.220728
 C         1.894146         0.349264        -1.195679
 C         3.292085         0.509340        -0.446382
 C         4.435497        -0.373617        -0.986682
 O         3.603025        -1.461027        -0.670419
 C         2.959822        -0.711484         0.374965
 C         3.125134         1.524122         0.660400
 O         1.727240         1.026429         1.046176
 H        -0.784063        -0.216430         0.419292
 H         0.036541        -1.802076        -0.003498
 H         0.420558        -1.115228         1.605282
 H         2.124234        -0.389079        -1.960810
 H         1.271584         1.158185        -1.564743
 H         4.731066        -0.203338        -2.009259
 H         5.360906        -0.377150        -0.451440
 H         3.303417        -0.854884         1.368638
 H         3.890300         1.475605         1.526246
 H         3.000124         2.601181         0.402506
