19
Iteration:  3085charge 0 multiplicity 1
 C         0.192748        -0.669442         0.515240
 C         1.549421        -0.130167         0.232977
 C         1.869869         0.883422        -0.913553
 C         3.275104         0.599963        -0.331376
 C         4.271497        -0.144807        -1.224287
 O         3.444633        -1.264850        -1.260587
 C         2.816770        -0.930561        -0.013579
 C         3.312989         1.101094         1.079902
 O         1.987796         0.471036         1.482624
 H        -0.392675        -1.146241        -0.406761
 H         0.292523        -1.495475         1.251806
 H        -0.526725         0.255996         0.778340
 H         1.674771         0.540704        -1.830620
 H         1.469405         1.872856        -0.714365
 H         4.364039         0.312140        -2.216074
 H         5.300275        -0.383745        -0.854055
 H         3.256291        -1.400864         0.901496
 H         4.147696         0.596582         1.646209
 H         3.190899         2.208041         1.303893
