19
Iteration:  1987charge 0 multiplicity 1
 C         0.154957        -0.818592         0.472215
 C         1.491625        -0.166943         0.246454
 C         1.864791         0.389118        -1.110768
 C         3.282008         0.603916        -0.462384
 C         4.446593        -0.284684        -1.059622
 O         3.528234        -1.498100        -0.738299
 C         2.950695        -0.746028         0.275913
 C         3.153840         1.472582         0.794621
 O         1.819113         0.968016         1.174353
 H        -0.105853        -0.869247         1.525199
 H        -0.601763        -0.163244         0.005749
 H         0.181829        -1.822840         0.028748
 H         1.918983        -0.312374        -2.043273
 H         1.290679         1.223058        -1.448271
 H         4.713711        -0.315883        -2.116219
 H         5.368207        -0.287388        -0.481711
 H         3.486713        -0.955399         1.253455
 H         4.101966         1.270263         1.429520
 H         3.103948         2.506522         0.560395
