19
Iteration:  1631
 C         0.098621        -0.942912         0.516512
 C         1.489351        -0.222367         0.323409
 C         1.938507         0.309124        -1.099301
 C         3.350271         0.519391        -0.337981
 C         4.441217        -0.299524        -1.038004
 O         3.705395        -1.582921        -0.571844
 C         2.927594        -0.795069         0.389705
 C         3.017181         1.654498         0.519001
 O         1.738404         1.240123         0.931660
 H         0.004729        -1.609068        -0.374725
 H         0.017929        -1.462421         1.496308
 H        -0.732119        -0.210117         0.509743
 H         1.984285        -0.469353        -1.891741
 H         1.476010         1.195202        -1.469086
 H         4.700950        -0.349321        -2.120243
 H         5.322879        -0.287728        -0.352522
 H         3.239149        -1.139584         1.375944
 H         3.893010         1.752521         1.381893
 H         2.994904         2.576250        -0.024968
