19
Iteration:   958
 C         0.174070        -0.767073         0.610753
 C         1.482989        -0.188638         0.094536
 C         2.062892        -0.125130        -1.318372
 C         3.301750         0.454916        -0.574264
 C         4.560146        -0.415947        -0.724759
 O         3.859250        -1.514794         0.077888
 C         2.952896        -0.578359         0.574325
 C         2.820746         1.804254         0.031399
 O         1.543470         1.188978         0.726137
 H        -0.672998        -0.297874         0.149757
 H         0.160201        -1.803713         0.456823
 H         0.170717        -0.494109         1.673667
 H         2.135141        -1.186409        -1.736798
 H         1.470184         0.450694        -1.964465
 H         4.694495        -0.845837        -1.750203
 H         5.474916        -0.061163        -0.199965
 H         3.215594        -0.411682         1.626768
 H         3.340880         2.355644         0.772963
 H         2.459473         2.487379        -0.641000
