19
Iteration:  3862
 C         0.075438        -0.601524         0.532973
 C         1.447683        -0.137527         0.221991
 C         1.883357         1.091737        -0.627071
 C         3.340191         0.474477        -0.232412
 C         4.241524         0.092127        -1.392859
 O         3.404399        -1.111424        -1.594095
 C         2.826712        -0.954873        -0.254225
 C         3.420909         0.761927         1.286878
 O         2.042712         0.308104         1.624842
 H        -0.230983        -1.647565         0.215359
 H         0.163592        -0.740776         1.687317
 H        -0.863002        -0.069370         0.168439
 H         1.644764         0.915426        -1.720630
 H         1.686970         2.143134        -0.205178
 H         4.226363         0.710696        -2.290478
 H         5.367661        -0.167921        -1.155860
 H         3.232943        -1.640756         0.457330
 H         4.221054         0.035920         1.837507
 H         3.720683         1.771396         1.639018
