19
Iteration:  2884
 C         0.075631        -0.851283         0.443637
 C         1.498618        -0.123519         0.256626
 C         1.932843         0.828457        -0.813303
 C         3.332760         0.551244        -0.295019
 C         4.264820        -0.158307        -1.220127
 O         3.452148        -1.377486        -1.281250
 C         2.874829        -0.905369         0.092462
 C         3.308047         1.251136         1.013881
 O         1.979713         0.675020         1.428827
 H         0.003013        -1.539736         1.282720
 H        -0.872174        -0.153275         0.683811
 H        -0.077100        -1.260142        -0.589371
 H         1.798622         0.725018        -1.989618
 H         1.636956         1.838697        -0.507490
 H         4.484474         0.314549        -2.202892
 H         5.170104        -0.368704        -0.662491
 H         3.211397        -1.502427         0.877681
 H         4.104709         0.890140         1.628731
 H         3.335638         2.361753         0.937887
