19
Iteration:  4477
 C         0.105536        -0.527380         0.455756
 C         1.533505        -0.186382         0.343103
 C         1.948920         0.964074        -0.629548
 C         3.378900         0.474321        -0.206103
 C         4.228734         0.086406        -1.394871
 O         3.287340        -1.040957        -1.598175
 C         2.781661        -0.959694        -0.242523
 C         3.351982         0.893466         1.288678
 O         2.131346         0.188667         1.625776
 H        -0.221376        -1.405128        -0.253397
 H        -0.218673        -0.860053         1.458322
 H        -0.595394         0.334090         0.175203
 H         1.750590         0.763507        -1.634553
 H         1.736985         1.994720        -0.312266
 H         4.254547         0.691511        -2.275455
 H         5.209651        -0.316700        -1.220489
 H         3.141068        -1.889412         0.459373
 H         4.157302         0.563431         1.991539
 H         3.293271         1.991492         1.350516
