19
Iteration:  3451
 C         0.099539        -0.689461         0.458245
 C         1.514305        -0.185339         0.200465
 C         2.010670         0.941032        -0.768499
 C         3.402329         0.546050        -0.216224
 C         4.243767         0.036197        -1.384521
 O         3.260074        -1.207663        -1.428385
 C         2.865100        -0.873365        -0.070379
 C         3.320773         0.985274         1.260346
 O         2.031217         0.390330         1.537282
 H        -0.328631        -1.580921        -0.154301
 H         0.208127        -1.031896         1.679896
 H        -0.678495         0.094534         0.439731
 H         1.963883         0.676428        -1.807627
 H         1.734916         1.868733        -0.421620
 H         4.321691         0.549282        -2.357059
 H         5.225739        -0.340571        -1.262624
 H         3.154703        -1.682587         0.621987
 H         4.116524         0.550150         1.851880
 H         3.295451         2.023791         1.467453
