19
Iteration:  1039
 C         0.288911        -0.800144         0.619194
 C         1.516655        -0.194473         0.154837
 C         2.057811        -0.017239        -1.279573
 C         3.313134         0.468921        -0.500506
 C         4.502153        -0.419039        -0.742587
 O         3.738738        -1.529703        -0.016175
 C         2.961199        -0.541901         0.552611
 C         2.867893         1.752486         0.096644
 O         1.527456         1.183120         0.651520
 H         0.408869        -1.868727         0.970971
 H        -0.234242        -0.206514         1.440712
 H        -0.420410        -0.805632        -0.208227
 H         2.245684        -1.003955        -1.607697
 H         1.418847         0.600876        -2.013582
 H         4.781885        -0.527249        -1.801247
 H         5.481355        -0.333831        -0.217704
 H         3.218934        -0.599944         1.663330
 H         3.414673         1.936810         0.930467
 H         2.485724         2.561118        -0.558611
