19
Iteration:    51charge 0 multiplicity 1
 C         0.284426        -0.778422         0.693626
 C         1.475986        -0.196024         0.113050
 C         2.210114        -0.720205        -1.105880
 C         3.310685         0.269004        -0.675234
 C         4.692838        -0.352227        -0.347244
 O         3.994295        -1.148398         0.850081
 C         2.846176        -0.128291         0.787623
 C         2.588968         1.640037        -0.744614
 O         1.343425         1.227900        -0.059383
 H        -0.651502        -0.293658         0.251422
 H         0.079572        -1.833524         0.458907
 H         0.336479        -0.611089         1.790155
 H         2.524570        -1.769934        -0.940647
 H         1.807706        -0.581194        -2.148566
 H         5.180382        -1.055550        -1.121498
 H         5.344861         0.391794         0.114226
 H         2.899164         0.491947         1.702754
 H         3.093967         2.395170        -0.046505
 H         2.225248         1.989255        -1.791332
