19
Iteration:  1618
 C         0.150245        -0.851949         0.533972
 C         1.486037        -0.191429         0.172107
 C         1.921253         0.312700        -1.145366
 C         3.333784         0.441151        -0.368449
 C         4.446793        -0.364202        -0.968131
 O         3.752743        -1.533814        -0.549138
 C         2.941743        -0.816905         0.447819
 C         3.072223         1.667956         0.464067
 O         1.663043         1.163247         1.020893
 H        -0.289331        -1.274475        -0.375815
 H         0.253399        -1.729631         1.221780
 H        -0.588027        -0.064624         0.918543
 H         1.974195        -0.394339        -1.903419
 H         1.386288         1.236888        -1.426923
 H         4.330298        -0.162358        -2.051329
 H         5.493685        -0.344431        -0.737989
 H         3.233974        -1.011790         1.441030
 H         3.755100         1.966605         1.416330
 H         2.732279         2.522965        -0.112092
