19
Iteration:  2083
 C         0.042855        -0.810280         0.476794
 C         1.436280        -0.123914         0.330829
 C         1.846308         0.513387        -1.013434
 C         3.325625         0.493053        -0.413602
 C         4.443284        -0.275640        -1.017417
 O         3.669844        -1.492594        -0.932242
 C         2.885045        -0.834154         0.271324
 C         3.201590         1.484463         0.701970
 O         1.841933         0.944922         1.202292
 H        -0.688541        -0.320407        -0.204851
 H         0.190595        -1.920825         0.150832
 H        -0.318979        -0.834301         1.563049
 H         1.827493        -0.059811        -1.986701
 H         1.371906         1.396983        -1.278478
 H         4.748440        -0.114998        -2.034551
 H         5.428905        -0.353628        -0.452223
 H         3.300497        -1.166518         1.182239
 H         3.913561         1.393019         1.570280
 H         3.022985         2.562377         0.693721
