19
Iteration:  2894charge 0 multiplicity 1
 C         0.108389        -0.787540         0.441895
 C         1.495962        -0.220323         0.302803
 C         1.848900         0.877790        -0.865682
 C         3.352739         0.496382        -0.278437
 C         4.296796        -0.156928        -1.240323
 O         3.420248        -1.325391        -1.264377
 C         2.889676        -0.858791         0.085636
 C         3.342053         1.224400         1.001329
 O         1.965243         0.652623         1.456689
 H        -0.052386        -1.445642         1.300645
 H        -0.684290         0.076532         0.200019
 H         0.054202        -1.553250        -0.403846
 H         1.790544         0.476918        -1.959609
 H         1.507127         1.840059        -0.798899
 H         4.550082         0.186874        -2.249665
 H         5.209665        -0.392222        -0.730609
 H         3.336509        -1.382245         0.885272
 H         3.983664         0.876472         1.808284
 H         3.276932         2.357934         1.065903
