19
Iteration:  1426
 C         0.223211        -0.674022         0.581955
 C         1.595438        -0.212268         0.167252
 C         1.950848         0.145069        -1.274633
 C         3.361251         0.520497        -0.385991
 C         4.499277        -0.436942        -0.906984
 O         3.762847        -1.551100        -0.415981
 C         2.904555        -0.700526         0.473784
 C         2.883800         1.719022         0.454736
 O         1.611103         1.032349         0.891638
 H         0.084499        -1.754959         0.453177
 H        -0.030077        -0.355041         1.603804
 H        -0.382093        -0.068814        -0.118606
 H         2.136486        -0.789121        -1.848656
 H         1.338151         0.989481        -1.743265
 H         4.552653        -0.412777        -1.958325
 H         5.406285        -0.051951        -0.449801
 H         3.138700        -0.879293         1.578927
 H         3.410484         1.873851         1.317866
 H         2.500770         2.597224        -0.198331
