19
Iteration:  3782charge 0 multiplicity 1
 C         0.132290        -0.750399         0.419416
 C         1.519608        -0.129795         0.309680
 C         2.023427         1.043635        -0.612962
 C         3.446904         0.501369        -0.185353
 C         4.240911        -0.004824        -1.395603
 O         3.135644        -0.986194        -1.627825
 C         2.822404        -0.935582        -0.163951
 C         3.449381         0.905260         1.274581
 O         2.001959         0.273553         1.601928
 H         0.130803        -1.658833        -0.035371
 H        -0.108853        -0.904244         1.448783
 H        -0.644831        -0.087390         0.196704
 H         1.767479         0.966579        -1.758180
 H         1.805687         2.078266        -0.198036
 H         4.414595         0.694668        -2.264247
 H         5.135623        -0.609586        -1.131870
 H         3.217805        -1.730603         0.509251
 H         4.208656         0.295683         1.932763
 H         3.400155         1.978312         1.515049
