19
Iteration:  4286
 C         0.115929        -0.719108         0.488018
 C         1.489023        -0.121198         0.249753
 C         1.914224         1.071509        -0.651792
 C         3.424988         0.554531        -0.164119
 C         4.226983         0.016944        -1.331163
 O         3.298045        -1.059013        -1.614428
 C         2.817067        -0.900935        -0.224850
 C         3.429076         0.739605         1.280039
 O         2.042793         0.365664         1.572617
 H        -0.165185        -1.452072        -0.318113
 H        -0.032992        -1.230945         1.547580
 H        -0.699852         0.146252         0.472639
 H         1.724860         0.875842        -1.712702
 H         1.496299         1.900108        -0.217990
 H         4.263918         0.683684        -2.258087
 H         5.187309        -0.441740        -1.084474
 H         3.205882        -1.716600         0.559559
 H         4.168603         0.013381         1.766773
 H         3.545625         1.799501         1.711315
