19
Iteration:  3073charge 0 multiplicity 1
 C         0.179062        -0.677283         0.445653
 C         1.509195        -0.170513         0.173724
 C         1.879328         0.824097        -0.915030
 C         3.337438         0.588698        -0.316876
 C         4.249178        -0.048018        -1.300919
 O         3.358265        -1.305738        -1.261966
 C         2.872972        -0.855559         0.098263
 C         3.297553         1.067779         1.113522
 O         2.025190         0.522923         1.514691
 H        -0.318088        -0.920957        -0.595756
 H         0.258519        -1.618633         1.072288
 H        -0.389066        -0.010299         1.249879
 H         1.862390         0.457298        -1.842767
 H         1.485151         1.763498        -0.862630
 H         4.502680         0.305217        -2.295679
 H         5.126270        -0.288614        -0.690019
 H         3.105773        -1.607967         0.868955
 H         4.111742         0.638198         1.777176
 H         3.375596         2.232921         1.251200
