19
Iteration:  2151
 C         0.119989        -0.792904         0.477286
 C         1.513923        -0.156158         0.219711
 C         1.942028         0.560528        -1.057843
 C         3.358173         0.570843        -0.340812
 C         4.465572        -0.374266        -1.152850
 O         3.527559        -1.458810        -0.920534
 C         2.885036        -0.762697         0.219698
 C         3.068775         1.470641         0.820609
 O         1.841687         0.840692         1.321303
 H        -0.079967        -1.786244        -0.080679
 H         0.032979        -1.013859         1.549944
 H        -0.633603        -0.006957         0.250452
 H         1.897076        -0.127698        -1.877907
 H         1.446893         1.459402        -1.361812
 H         4.630190        -0.076739        -2.184486
 H         5.463539        -0.499767        -0.704009
 H         3.366299        -1.026416         1.112771
 H         3.852284         1.465107         1.653670
 H         3.028006         2.490212         0.565775
