19
Iteration:  2043charge 0 multiplicity 1
 C         0.130406        -0.708160         0.613040
 C         1.500035        -0.170519         0.121204
 C         1.994538         0.522825        -1.124611
 C         3.382165         0.598533        -0.314746
 C         4.418016        -0.375138        -1.138361
 O         3.616765        -1.508147        -0.820048
 C         2.912828        -0.784513         0.298912
 C         2.963713         1.587822         0.774005
 O         1.817235         0.762195         1.180715
 H        -0.426275         0.155980         1.050136
 H        -0.376095        -1.175678        -0.191034
 H         0.214214        -1.502082         1.325519
 H         2.083136        -0.282128        -1.938918
 H         1.589824         1.516257        -1.472474
 H         4.387326        -0.135669        -2.227434
 H         5.431994        -0.439228        -0.796466
 H         3.147423        -1.278887         1.316628
 H         3.806889         1.622160         1.595018
 H         2.734604         2.580116         0.379238
