19
Iteration:  3692
 C         0.105312        -0.590522         0.438025
 C         1.544789        -0.218420         0.263971
 C         1.932225         0.951042        -0.686492
 C         3.409609         0.558328        -0.190904
 C         4.215915         0.007252        -1.361192
 O         3.229519        -1.034879        -1.524315
 C         2.844527        -0.878545        -0.163375
 C         3.335683         0.949650         1.266529
 O         2.120832         0.159572         1.596613
 H        -0.386404         0.060694        -0.218414
 H        -0.257569        -1.499444         0.253048
 H        -0.129642        -0.383160         1.400681
 H         1.825260         0.498346        -1.790546
 H         1.634283         1.985592        -0.533299
 H         4.244788         0.720563        -2.233746
 H         5.171968        -0.476587        -1.121792
 H         3.360482        -1.625128         0.481917
 H         4.193869         0.465288         1.876918
 H         3.234739         2.081790         1.485688
