19
Iteration:  3576
 C         0.051405        -0.636997         0.451280
 C         1.470239        -0.239885         0.289433
 C         1.923989         0.919933        -0.590191
 C         3.388765         0.462524        -0.195329
 C         4.258720         0.062299        -1.304612
 O         3.348840        -1.074237        -1.556680
 C         2.804226        -1.000641        -0.198817
 C         3.394575         0.968664         1.126523
 O         2.099348         0.361169         1.615653
 H        -0.279376        -0.501355         1.479574
 H        -0.659704         0.219987        -0.012657
 H        -0.119262        -1.601094        -0.161017
 H         1.783116         0.775866        -1.613283
 H         1.721977         1.944361        -0.198635
 H         4.290368         0.768402        -2.113581
 H         5.223396        -0.327052        -0.984434
 H         3.196902        -1.853828         0.374912
 H         4.091310         0.683899         1.816366
 H         3.235646         2.037788         1.085008
