19
Iteration:   323charge 0 multiplicity 1
 C         0.249219        -0.806125         0.640453
 C         1.489788        -0.244101         0.131417
 C         2.124319        -0.511815        -1.215872
 C         3.254563         0.313714        -0.570085
 C         4.633546        -0.354062        -0.471073
 O         3.991348        -1.224857         0.635692
 C         2.889429        -0.278490         0.783680
 C         2.677460         1.628188        -0.590006
 O         1.396694         1.289434         0.198008
 H         0.491996        -1.651233         1.372856
 H        -0.207954         0.018639         1.215837
 H        -0.442712        -1.239843        -0.136657
 H         2.343759        -1.619602        -1.266048
 H         1.605309        -0.173776        -2.152832
 H         4.811716        -1.066038        -1.335879
 H         5.527289         0.200874        -0.075148
 H         3.022492         0.217598         1.819619
 H         3.341070         2.491247        -0.103539
 H         2.631479         2.022154        -1.599213
