19
Iteration:   988charge 0 multiplicity 1
 C         0.148991        -0.799816         0.634603
 C         1.491742        -0.191142         0.141478
 C         2.024434        -0.075322        -1.285019
 C         3.314365         0.423622        -0.498572
 C         4.556774        -0.418099        -0.703990
 O         3.833135        -1.536572        -0.041683
 C         2.993664        -0.553487         0.651053
 C         2.870773         1.779323         0.063057
 O         1.532382         1.193333         0.591809
 H        -0.430206        -1.221295        -0.209889
 H         0.392961        -1.554296         1.402689
 H        -0.449828        -0.020123         1.152977
 H         2.094326        -0.999714        -1.923324
 H         1.352835         0.645999        -1.772983
 H         4.844876        -0.676899        -1.715619
 H         5.433594        -0.049022        -0.133946
 H         3.366754        -0.340433         1.642605
 H         3.335861         2.340428         0.996509
 H         2.558748         2.570588        -0.703210
