19
Iteration:  3007
 C         0.153073        -0.757512         0.512667
 C         1.509146        -0.125782         0.199051
 C         1.905678         0.841973        -0.940783
 C         3.398331         0.575593        -0.226354
 C         4.242998        -0.186067        -1.267882
 O         3.381772        -1.257695        -1.291964
 C         2.864119        -0.887088         0.049502
 C         3.305914         1.196965         1.118644
 O         1.989595         0.532281         1.453642
 H        -0.638635        -0.008138         0.098786
 H         0.033728        -1.749098        -0.083263
 H        -0.123121        -1.029767         1.631915
 H         1.879933         0.524512        -1.934298
 H         1.460531         1.850741        -0.862385
 H         4.412737         0.199562        -2.294447
 H         5.237856        -0.418124        -0.806277
 H         3.130741        -1.650874         0.807522
 H         4.109007         0.870325         1.803387
 H         3.160264         2.297834         1.271136
