19
Iteration:  3157charge 0 multiplicity 1
 C         0.147790        -0.668578         0.425090
 C         1.531905        -0.214340         0.204752
 C         1.921648         0.811754        -0.880346
 C         3.366245         0.561752        -0.248558
 C         4.251940        -0.124695        -1.306835
 O         3.311364        -1.225854        -1.360650
 C         2.912262        -0.891579         0.045606
 C         3.318564         1.115163         1.206925
 O         1.987257         0.554127         1.535160
 H         0.193378        -1.700453         0.610101
 H        -0.241831        -0.267617         1.357014
 H        -0.402596        -0.529687        -0.412136
 H         1.805567         0.358939        -2.032074
 H         1.497904         1.890476        -0.835957
 H         4.210065         0.322133        -2.358305
 H         5.304658        -0.383649        -1.025164
 H         3.275250        -1.581678         0.819705
 H         4.025889         0.621317         1.818517
 H         3.302318         2.122515         1.465355
