19
Iteration:  1954
 C         0.255830        -0.766599         0.591221
 C         1.475124        -0.087462         0.135312
 C         1.984692         0.556610        -1.080241
 C         3.336952         0.492835        -0.326930
 C         4.444514        -0.334946        -1.083558
 O         3.601697        -1.584036        -0.744905
 C         2.872956        -0.853814         0.251880
 C         2.956636         1.590800         0.672898
 O         1.806567         0.925953         1.157953
 H         0.583604        -1.569473         1.218035
 H        -0.500795        -0.155191         1.103928
 H        -0.211602        -1.253071        -0.297675
 H         1.986321        -0.264868        -1.932520
 H         1.616439         1.535543        -1.241194
 H         4.414747        -0.321339        -2.155100
 H         5.400804        -0.457370        -0.591313
 H         3.205594        -1.389079         1.204876
 H         3.619003         1.967545         1.553123
 H         2.589503         2.448325         0.167132
