19
Iteration:  4106charge 0 multiplicity 1
 C         0.161181        -0.712076         0.296854
 C         1.470440        -0.077218         0.373484
 C         1.996889         0.994593        -0.507609
 C         3.389545         0.513359        -0.198462
 C         4.142828         0.024447        -1.365065
 O         3.270469        -1.088776        -1.601013
 C         2.774248        -0.955250        -0.194274
 C         3.437763         0.891815         1.233847
 O         2.109053         0.339983         1.618573
 H        -0.211751        -1.080755        -0.701134
 H         0.120862        -1.499916         1.025895
 H        -0.637833        -0.056055         0.620911
 H         1.728883         0.745991        -1.465708
 H         1.625854         2.154930        -0.387096
 H         4.199326         0.657699        -2.195373
 H         5.155343        -0.373510        -1.119187
 H         3.087245        -1.822281         0.336727
 H         4.022758         0.286221         1.886343
 H         3.518756         1.988498         1.607447
