19
Iteration:   996charge 0 multiplicity 1
 C         0.134993        -0.831040         0.631334
 C         1.484803        -0.212548         0.193822
 C         1.957083        -0.092747        -1.208097
 C         3.389997         0.477213        -0.478730
 C         4.581561        -0.398760        -0.699265
 O         3.830253        -1.544324        -0.059742
 C         3.007165        -0.628424         0.582564
 C         2.879117         1.803281         0.051065
 O         1.487333         1.270458         0.565482
 H        -0.388411        -1.553718        -0.079640
 H         0.249178        -1.527771         1.563505
 H        -0.634621        -0.099594         0.922879
 H         2.154777        -0.964332        -1.759363
 H         1.639907         0.827171        -1.839311
 H         4.853781        -0.654456        -1.712160
 H         5.528747        -0.076506        -0.241090
 H         3.129325        -0.400772         1.688664
 H         3.512292         2.057892         0.899434
 H         2.810888         2.559330        -0.837671
