19
Iteration:  1045
 C         0.242308        -0.825640         0.646076
 C         1.542670        -0.199004         0.157657
 C         2.074619         0.019941        -1.286423
 C         3.350600         0.484294        -0.572812
 C         4.557698        -0.485844        -0.757028
 O         3.740153        -1.504744        -0.019075
 C         2.903553        -0.532942         0.562753
 C         2.810916         1.758660         0.128642
 O         1.561449         1.157102         0.671235
 H         0.216140        -1.777927         1.128953
 H        -0.314967        -0.201716         1.292539
 H        -0.387337        -0.942974        -0.266224
 H         2.360393        -0.984007        -1.751001
 H         1.343377         0.551736        -1.842105
 H         4.736788        -0.702630        -1.847218
 H         5.462426        -0.199387        -0.199926
 H         3.084422        -0.326047         1.613440
 H         3.494833         2.165318         1.045578
 H         2.545749         2.534711        -0.583300
