19
Iteration:   135
 C         0.249688        -0.812841         0.747044
 C         1.528252        -0.277965         0.152735
 C         2.120463        -0.669906        -1.156419
 C         3.342550         0.323110        -0.728732
 C         4.694610        -0.339017        -0.322125
 O         3.900519        -1.156699         0.770117
 C         2.865273        -0.201364         0.707060
 C         2.684428         1.663904        -0.718692
 O         1.376218         1.265458         0.015142
 H         0.481281        -1.702737         1.334755
 H        -0.241803        -0.051878         1.365254
 H        -0.367660        -1.164707        -0.072121
 H         2.480573        -1.711103        -1.061018
 H         1.520261        -0.497292        -2.049652
 H         5.267664        -0.942759        -0.964076
 H         5.351052         0.407676         0.197344
 H         2.906672         0.432292         1.659665
 H         3.126138         2.304744         0.043801
 H         2.377799         2.155952        -1.616617
