19
Iteration:  1690charge 0 multiplicity 1
 C         0.112355        -0.857969         0.607430
 C         1.462675        -0.187668         0.107200
 C         1.979185         0.442784        -1.220356
 C         3.339928         0.533217        -0.360388
 C         4.403965        -0.430159        -0.985119
 O         3.770517        -1.596136        -0.584585
 C         2.900210        -0.744087         0.374728
 C         2.960850         1.677491         0.499389
 O         1.748158         1.011657         1.094858
 H         0.371990        -1.657111         1.280517
 H        -0.267817        -0.220630         1.392360
 H        -0.694166        -1.088767        -0.072106
 H         2.009796        -0.162335        -2.134844
 H         1.549157         1.508139        -1.421677
 H         4.701753        -0.314213        -2.045567
 H         5.440401        -0.342145        -0.454797
 H         3.240895        -1.035760         1.457776
 H         3.821225         1.912772         1.196984
 H         2.774158         2.724729        -0.071844
