19
Iteration:   777
 C         0.135214        -0.757721         0.639141
 C         1.545776        -0.226638         0.198264
 C         2.040526        -0.113939        -1.259410
 C         3.280081         0.373007        -0.550130
 C         4.575055        -0.401543        -0.640434
 O         3.926985        -1.475465         0.241366
 C         2.983779        -0.519061         0.677756
 C         2.743554         1.730671        -0.176160
 O         1.526623         1.210856         0.437503
 H        -0.720337        -0.064685         0.436942
 H        -0.132609        -1.625035         0.035197
 H         0.155294        -1.145053         1.694072
 H         2.212387        -1.133264        -1.704883
 H         1.433293         0.480138        -1.954388
 H         4.880747        -0.870984        -1.578114
 H         5.360354         0.133083        -0.065494
 H         3.113488        -0.162600         1.703772
 H         3.297586         2.427150         0.504637
 H         2.654361         2.365249        -1.026052
