19
Iteration:  1882
 C         0.163752        -0.714654         0.526191
 C         1.519810        -0.193904         0.152711
 C         1.882082         0.449965        -1.154803
 C         3.264378         0.511613        -0.413245
 C         4.343487        -0.345925        -1.075005
 O         3.729616        -1.546041        -0.666381
 C         2.913334        -0.815476         0.323063
 C         3.024681         1.575503         0.672150
 O         1.814988         0.945613         1.190323
 H        -0.038095        -1.561123        -0.228611
 H         0.222480        -1.188095         1.513269
 H        -0.622764         0.063398         0.517248
 H         1.991336        -0.348264        -1.901226
 H         1.471306         1.377326        -1.516890
 H         4.587348        -0.305192        -2.188161
 H         5.248052        -0.153110        -0.450269
 H         3.282048        -0.917456         1.349954
 H         3.886378         1.517515         1.408361
 H         3.075435         2.693534         0.308735
