19
Iteration:  4105
 C         0.166159        -0.715730         0.297205
 C         1.474902        -0.081924         0.367944
 C         1.995938         0.994955        -0.507680
 C         3.377469         0.518630        -0.205648
 C         4.136265         0.023433        -1.370861
 O         3.276788        -1.089232        -1.601518
 C         2.767016        -0.948263        -0.189068
 C         3.447412         0.889933         1.241183
 O         2.101066         0.343931         1.621627
 H        -0.181930        -1.078333        -0.647834
 H         0.132404        -1.456186         1.023463
 H        -0.627507        -0.054273         0.567891
 H         1.760575         0.719508        -1.495651
 H         1.635362         2.205430        -0.371360
 H         4.188951         0.644942        -2.181986
 H         5.127938        -0.363375        -1.114129
 H         3.121134        -1.889024         0.353923
 H         4.023421         0.240527         1.880001
 H         3.547716         1.959921         1.621962
