19
Iteration:  3811
 C         0.155455        -0.697954         0.382211
 C         1.525853        -0.166926         0.283204
 C         1.967970         1.075375        -0.609019
 C         3.420968         0.468553        -0.185653
 C         4.222777         0.029007        -1.382990
 O         3.196120        -1.059448        -1.652578
 C         2.729923        -0.957286        -0.194563
 C         3.399856         0.927893         1.303976
 O         2.156018         0.268578         1.702498
 H         0.110590        -1.791491        -0.102920
 H        -0.404820        -0.742207         1.325615
 H        -0.527025         0.046745        -0.139761
 H         1.764502         1.064705        -1.766694
 H         1.686473         1.942770        -0.074596
 H         4.262382         0.725946        -2.226257
 H         5.133223        -0.513420        -1.247191
 H         3.016903        -1.790100         0.502164
 H         4.144449         0.691154         1.939834
 H         3.262724         2.046647         1.380780
