19
Iteration:  1999charge 0 multiplicity 1
 C         0.192137        -0.766775         0.432057
 C         1.543100        -0.154484         0.271751
 C         1.789993         0.432971        -1.029296
 C         3.309095         0.529517        -0.415420
 C         4.332149        -0.289824        -1.058121
 O         3.672057        -1.507276        -0.805111
 C         2.897384        -0.812490         0.300255
 C         3.159151         1.438605         0.743758
 O         1.828348         1.036085         1.113702
 H        -0.163798        -0.649704         1.465874
 H        -0.556637        -0.494278        -0.275899
 H         0.321675        -1.826129         0.300733
 H         1.836273        -0.447572        -1.796378
 H         1.182709         1.309592        -1.226999
 H         4.581226        -0.125139        -2.126429
 H         5.192775        -0.228927        -0.397162
 H         3.233813        -1.033797         1.375193
 H         3.744705         1.199342         1.699240
 H         3.103908         2.491409         0.663449
