19
Iteration:  4902charge 0 multiplicity 1
 C         0.143990        -0.573775         0.437623
 C         1.561287        -0.194958         0.224377
 C         1.928203         0.920283        -0.639480
 C         3.415098         0.518482        -0.158597
 C         4.210968         0.022928        -1.426212
 O         3.277756        -1.067864        -1.619563
 C         2.817277        -0.928900        -0.187679
 C         3.349345         0.917684         1.303185
 O         2.069190         0.251166         1.654857
 H        -0.531843        -0.795162        -0.466340
 H         0.009785        -1.324771         1.216272
 H        -0.356394         0.456957         0.857220
 H         1.741568         0.690105        -1.584870
 H         1.557893         1.867903        -0.331460
 H         4.383007         0.781996        -2.163955
 H         5.144949        -0.313190        -0.996250
 H         3.077571        -1.836377         0.450642
 H         4.191713         0.513743         1.949755
 H         3.273444         2.012768         1.415810
