19
Iteration:  3807charge 0 multiplicity 1
 C         0.130959        -0.723068         0.374374
 C         1.513646        -0.175547         0.284799
 C         1.987992         1.060315        -0.565882
 C         3.460813         0.488182        -0.160677
 C         4.224230        -0.008172        -1.418443
 O         3.197050        -1.048217        -1.651074
 C         2.702660        -0.956407        -0.225734
 C         3.371157         0.945210         1.307403
 O         2.169524         0.291063         1.681719
 H         0.183437        -1.759621        -0.075963
 H        -0.463436        -0.776554         1.385865
 H        -0.568567         0.040815        -0.100204
 H         1.849410         1.055970        -1.550703
 H         1.629174         1.969618        -0.061632
 H         4.267760         0.725220        -2.227810
 H         5.236597        -0.512342        -1.181680
 H         3.010400        -1.771036         0.409132
 H         4.199854         0.714607         2.082562
 H         3.249147         2.032650         1.233174
