19
Iteration:  3450charge 0 multiplicity 1
 C         0.099744        -0.688365         0.466146
 C         1.508020        -0.185664         0.206630
 C         2.013436         0.942550        -0.773673
 C         3.406190         0.544378        -0.213289
 C         4.242368         0.044166        -1.382261
 O         3.268968        -1.221064        -1.430588
 C         2.863748        -0.868594        -0.072997
 C         3.313847         0.987696         1.254112
 O         2.031942         0.393041         1.535317
 H        -0.325517        -1.558797        -0.178630
 H         0.192868        -1.036926         1.634707
 H        -0.684389         0.094062         0.470311
 H         1.917958         0.698912        -1.791133
 H         1.724001         1.900786        -0.389483
 H         4.312529         0.560713        -2.358081
 H         5.248444        -0.347678        -1.265122
 H         3.157223        -1.691891         0.613135
 H         4.129599         0.515223         1.862791
 H         3.297275         1.974207         1.463027
