19
Iteration:  3093charge 0 multiplicity 1
 C         0.144004        -0.689049         0.550880
 C         1.487301        -0.118417         0.257001
 C         1.865593         0.919207        -0.824767
 C         3.339071         0.576899        -0.293775
 C         4.334787        -0.134533        -1.220872
 O         3.472078        -1.327028        -1.289014
 C         2.799270        -0.910783        -0.112088
 C         3.282679         1.116047         1.071856
 O         1.979320         0.480461         1.448152
 H        -0.123391        -1.289968        -0.321021
 H         0.024911        -1.262683         1.495382
 H        -0.497570         0.172432         0.707597
 H         1.636759         0.489219        -1.822115
 H         1.537231         1.878474        -0.701056
 H         4.321188         0.246579        -2.241143
 H         5.296231        -0.268121        -0.801420
 H         3.323106        -1.417298         0.691756
 H         4.213554         0.783336         1.590157
 H         3.168694         2.271154         1.272181
