19
Iteration:  2628
 C         0.152077        -0.730743         0.414916
 C         1.553970        -0.185984         0.314505
 C         1.894145         0.662499        -0.891236
 C         3.249457         0.510857        -0.336960
 C         4.282139        -0.109438        -1.181088
 O         3.549187        -1.410942        -1.125233
 C         2.849230        -0.934178         0.162523
 C         3.292639         1.246336         0.988779
 O         1.888635         0.842303         1.278079
 H        -0.264247        -0.520906         1.486028
 H        -0.540008        -0.219303        -0.259915
 H         0.088889        -1.833520         0.298449
 H         1.762799         0.071387        -1.707447
 H         1.443683         1.606984        -0.956807
 H         4.360734         0.212194        -2.205598
 H         5.288832        -0.318218        -0.822573
 H         3.354722        -1.399781         0.935739
 H         4.006510         0.882517         1.711879
 H         3.364614         2.285205         0.975620
