19
Iteration:  2331
 C         0.125090        -0.698610         0.568216
 C         1.468410        -0.152327         0.214119
 C         1.967906         0.711672        -0.975083
 C         3.377010         0.456278        -0.284526
 C         4.394558        -0.255369        -1.267669
 O         3.651469        -1.478385        -0.987665
 C         2.821894        -0.915360         0.136411
 C         3.132415         1.392187         0.832600
 O         1.794624         0.825393         1.318935
 H        -0.730226        -0.110590         0.461875
 H        -0.020015        -1.673038         0.016259
 H         0.170869        -1.016791         1.613888
 H         1.746357         0.332406        -2.071592
 H         1.527106         1.705487        -0.753503
 H         4.482957         0.031249        -2.362154
 H         5.416447        -0.379897        -0.899054
 H         3.140688        -1.440852         1.045157
 H         3.800375         1.253442         1.756832
 H         3.038304         2.461289         0.763173
