19
Iteration:   840charge 0 multiplicity 1
 C         0.189313        -0.868849         0.620772
 C         1.518580        -0.202925         0.224460
 C         1.989176        -0.163494        -1.304856
 C         3.266432         0.386425        -0.551753
 C         4.597440        -0.417479        -0.645651
 O         3.878947        -1.497027         0.113046
 C         2.908212        -0.430290         0.702949
 C         2.881688         1.735736        -0.054190
 O         1.486955         1.291542         0.468883
 H         0.120891        -1.914364         0.240382
 H         0.107846        -0.793635         1.684399
 H        -0.608271        -0.229345         0.133062
 H         2.121186        -1.210556        -1.726130
 H         1.470876         0.411837        -1.971894
 H         5.018910        -0.856046        -1.571582
 H         5.321571         0.157271        -0.097736
 H         3.208556        -0.244971         1.765121
 H         3.466926         2.094784         0.799997
 H         2.859930         2.594514        -0.895008
