19
Iteration:  4730
 C         0.081488        -0.700744         0.454132
 C         1.466555        -0.093092         0.253541
 C         1.939889         1.114902        -0.640314
 C         3.366162         0.522530        -0.196985
 C         4.239616         0.054964        -1.402521
 O         3.296372        -1.120086        -1.542724
 C         2.784955        -0.929368        -0.189667
 C         3.444812         0.808143         1.277755
 O         2.082179         0.291086         1.617904
 H        -0.362629        -0.903223        -0.552966
 H         0.439238        -1.621672         0.961440
 H        -0.609108        -0.057984         1.011357
 H         1.720482         0.910932        -1.716002
 H         1.586795         2.193437        -0.266362
 H         4.273928         0.523868        -2.402759
 H         5.382829        -0.311206        -1.196983
 H         3.054507        -1.667456         0.466406
 H         4.198856         0.211312         1.815777
 H         3.528816         1.832206         1.561360
