19
Iteration:  2048charge 0 multiplicity 1
 C         0.198951        -0.675200         0.590424
 C         1.534897        -0.168953         0.144417
 C         1.951454         0.478684        -1.191553
 C         3.358025         0.608758        -0.339348
 C         4.423774        -0.357953        -1.110223
 O         3.579115        -1.509571        -0.831255
 C         2.909615        -0.810061         0.305892
 C         2.982222         1.584913         0.798549
 O         1.829564         0.750513         1.202881
 H        -0.425244         0.164285         0.870169
 H        -0.316193        -1.189268        -0.275354
 H         0.220452        -1.342217         1.505060
 H         2.173086        -0.164966        -1.997472
 H         1.550269         1.482147        -1.423257
 H         4.349797        -0.185511        -2.199089
 H         5.466269        -0.408678        -0.665387
 H         3.085561        -1.135766         1.330992
 H         3.699479         1.594218         1.549116
 H         2.509452         2.581690         0.544279
