19
Iteration:  3605
 C         0.153940        -0.698524         0.464155
 C         1.509953        -0.111662         0.268375
 C         1.905689         0.979351        -0.651452
 C         3.426702         0.603823        -0.217387
 C         4.272329        -0.037075        -1.342026
 O         3.227632        -1.103689        -1.548753
 C         2.817714        -0.839771        -0.194172
 C         3.342664         0.905607         1.272532
 O         2.078196         0.283518         1.589242
 H        -0.252161        -0.386237         1.415735
 H        -0.409876        -0.343153        -0.461952
 H         0.171579        -1.782981         0.472704
 H         1.851934         0.598251        -1.752380
 H         1.521843         1.966884        -0.647333
 H         4.519956         0.509121        -2.323078
 H         5.144435        -0.603928        -0.953016
 H         3.220359        -1.661750         0.426496
 H         4.077243         0.393429         2.017516
 H         3.265431         1.989521         1.511912
