19
Iteration:   388
 C         0.260567        -0.880569         0.698359
 C         1.520067        -0.202045         0.199501
 C         2.125542        -0.547204        -1.110988
 C         3.249525         0.310407        -0.591299
 C         4.620891        -0.345071        -0.464375
 O         3.925799        -1.358812         0.466782
 C         2.889128        -0.265513         0.817004
 C         2.732953         1.793201        -0.466589
 O         1.421506         1.309387        -0.006356
 H        -0.309446        -0.215519         1.457025
 H        -0.487107        -1.113826        -0.094337
 H         0.450144        -1.792453         1.354300
 H         2.525313        -1.596962        -1.195770
 H         1.592503        -0.290762        -2.059850
 H         4.995408        -0.908425        -1.374252
 H         5.341954         0.427182        -0.039779
 H         2.980702         0.139359         1.883271
 H         3.242365         2.328923         0.512544
 H         2.481805         2.651050        -1.224897
