19
Iteration:  1209charge 0 multiplicity 1
 C         0.228496        -0.821898         0.524477
 C         1.552774        -0.142196         0.234585
 C         2.012642         0.066153        -1.199415
 C         3.291378         0.521067        -0.535635
 C         4.471612        -0.466762        -0.797176
 O         3.752130        -1.596283        -0.200449
 C         2.980918        -0.627922         0.613292
 C         2.813592         1.740250         0.262786
 O         1.624626         1.183660         0.679924
 H        -0.036513        -1.594203        -0.230065
 H         0.291780        -1.394244         1.467368
 H        -0.474927         0.008178         0.624241
 H         2.218505        -0.756129        -1.782678
 H         1.433036         0.830976        -1.792632
 H         4.553774        -0.607190        -1.861338
 H         5.379168        -0.094708        -0.308054
 H         3.377404        -0.565694         1.629271
 H         3.503041         2.057424         1.113861
 H         2.664049         2.677530        -0.197933
