19
Iteration:  2711charge 0 multiplicity 1
 C         0.095604        -0.778762         0.495431
 C         1.454321        -0.153801         0.268030
 C         1.914130         0.656018        -0.880115
 C         3.360342         0.533472        -0.263306
 C         4.377970        -0.187429        -1.181887
 O         3.483363        -1.343809        -1.196228
 C         2.843565        -0.869691         0.082889
 C         3.254082         1.308890         0.968539
 O         1.937026         0.769002         1.374110
 H        -0.709081        -0.117871         0.534707
 H         0.059980        -1.424398        -0.436493
 H         0.121502        -1.598550         1.209438
 H         1.717414         0.058663        -1.894311
 H         1.428497         1.714180        -0.929249
 H         4.455160         0.094343        -2.280358
 H         5.405238        -0.409602        -0.749799
 H         3.084073        -1.666832         0.904300
 H         4.017347         1.208151         1.802182
 H         3.249084         2.418320         0.681366
