19
Iteration:  2565
 C         0.208195        -0.795359         0.490862
 C         1.492354        -0.144218         0.208849
 C         1.888950         0.766949        -0.959307
 C         3.296798         0.449970        -0.308107
 C         4.393353        -0.252270        -1.111470
 O         3.489303        -1.418242        -1.084205
 C         2.791966        -0.915635         0.089064
 C         3.217881         1.365893         0.905556
 O         1.945912         0.799600         1.360487
 H         0.418658        -1.691534         1.044071
 H        -0.410658        -0.186833         1.010484
 H        -0.225232        -1.077306        -0.414581
 H         1.715483         0.357796        -1.990197
 H         1.372006         1.795366        -0.801671
 H         4.359462         0.296237        -2.031832
 H         5.437161        -0.430018        -0.729805
 H         3.079670        -1.422145         0.998260
 H         3.956793         1.316533         1.655367
 H         3.015831         2.411731         0.614733
