19
Iteration:  2587charge 0 multiplicity 1
 C         0.207112        -0.782908         0.537683
 C         1.492829        -0.081657         0.194866
 C         2.041390         0.786199        -0.970210
 C         3.398372         0.553628        -0.313538
 C         4.328431        -0.297362        -1.216038
 O         3.420192        -1.449174        -1.124188
 C         2.868327        -0.892997         0.116024
 C         3.096718         1.437196         0.969100
 O         1.902165         0.650276         1.391165
 H         0.321146        -1.273909         1.491869
 H        -0.510242        -0.065306         0.590197
 H        -0.020916        -1.526260        -0.160594
 H         1.944292         0.108295        -1.896397
 H         1.739466         1.901453        -1.185401
 H         4.423839        -0.009880        -2.279066
 H         5.305744        -0.300378        -0.634976
 H         3.093898        -1.428738         1.029635
 H         3.779036         1.440554         1.768163
 H         2.722217         2.444751         0.750021
