19
Iteration:   723charge 0 multiplicity 1
 C         0.284322        -0.843364         0.682330
 C         1.524096        -0.179191         0.145157
 C         2.080819        -0.232615        -1.256773
 C         3.321213         0.430215        -0.532370
 C         4.535025        -0.479373        -0.561305
 O         3.848129        -1.475512         0.220983
 C         2.923271        -0.403992         0.736553
 C         2.773247         1.811756        -0.231593
 O         1.446205         1.250807         0.345395
 H         0.530423        -1.137247         1.728503
 H        -0.629959        -0.261015         0.594314
 H         0.056609        -1.779838         0.107270
 H         2.385932        -1.208563        -1.745029
 H         1.509155         0.561142        -1.819213
 H         4.848550        -0.912827        -1.532579
 H         5.492155        -0.071003        -0.086910
 H         2.969870        -0.292004         1.818676
 H         3.382680         2.146763         0.675689
 H         2.592841         2.502829        -1.017304
