19
Iteration:  1066charge 0 multiplicity 1
 C         0.135813        -0.835801         0.568961
 C         1.454274        -0.230447         0.108085
 C         1.984222         0.055211        -1.313862
 C         3.309686         0.446653        -0.497229
 C         4.549577        -0.530824        -0.757760
 O         3.865235        -1.556917        -0.008998
 C         3.062394        -0.520252         0.591967
 C         2.794547         1.825634         0.077760
 O         1.584467         1.214270         0.743831
 H         0.354021        -1.386675         1.480660
 H        -0.555785        -0.095595         0.907492
 H        -0.418739        -1.549904        -0.110969
 H         2.006164        -0.916019        -1.946111
 H         1.572411         0.880313        -1.845672
 H         4.784948        -0.730303        -1.815829
 H         5.432889        -0.284629        -0.201878
 H         3.364256        -0.525533         1.591124
 H         3.512097         2.122158         0.989723
 H         2.424832         2.634689        -0.567258
