19
Iteration:  1407charge 0 multiplicity 1
 C         0.109856        -0.744215         0.589936
 C         1.505768        -0.247224         0.162406
 C         2.045218         0.259886        -1.230737
 C         3.322847         0.441175        -0.459814
 C         4.478628        -0.374372        -0.904128
 O         3.771355        -1.570897        -0.351864
 C         2.995585        -0.728479         0.478110
 C         2.843643         1.708580         0.392083
 O         1.653820         1.112200         0.888315
 H        -0.311723        -1.642504        -0.002975
 H         0.383618        -1.225077         1.584904
 H        -0.673879         0.023804         0.562017
 H         2.186582        -0.593052        -1.994673
 H         1.671636         1.134887        -1.683443
 H         4.689083        -0.475103        -1.992362
 H         5.484534        -0.324666        -0.382434
 H         3.188333        -0.614567         1.550338
 H         3.574477         1.933911         1.218209
 H         2.542310         2.519667        -0.207517
