19
Iteration:  1849
 C         0.138472        -0.796688         0.566422
 C         1.492147        -0.186610         0.202485
 C         1.890238         0.499621        -1.105259
 C         3.386806         0.480140        -0.278665
 C         4.446095        -0.405363        -1.118950
 O         3.711597        -1.546288        -0.709726
 C         2.906181        -0.788484         0.350887
 C         3.052113         1.649397         0.572815
 O         1.701723         0.984493         1.142230
 H        -0.513688        -0.928600        -0.392154
 H         0.289758        -1.816474         0.954742
 H        -0.438285        -0.247520         1.316278
 H         1.911332        -0.219261        -1.964552
 H         1.500724         1.452980        -1.352442
 H         4.624506        -0.343633        -2.220828
 H         5.470348        -0.496561        -0.699622
 H         3.381139        -1.084354         1.257256
 H         3.651049         1.769303         1.510756
 H         2.921078         2.659444        -0.036369
