19
Iteration:  1527charge 0 multiplicity 1
 C         0.172007        -0.854821         0.561041
 C         1.493340        -0.185319         0.158207
 C         1.992984         0.235600        -1.156977
 C         3.373672         0.521756        -0.404166
 C         4.479759        -0.391429        -0.979400
 O         3.703883        -1.598666        -0.544972
 C         2.907677        -0.718097         0.516807
 C         2.961905         1.686584         0.525146
 O         1.655703         1.167902         0.918547
 H        -0.368178        -0.122078         1.253768
 H        -0.512793        -1.029897        -0.288272
 H         0.412984        -1.717574         1.190483
 H         1.889846        -0.735212        -1.801294
 H         1.584663         1.140609        -1.577603
 H         4.689009        -0.359602        -2.060178
 H         5.466333        -0.337938        -0.512356
 H         3.235659        -0.972173         1.556782
 H         3.590942         2.040356         1.397942
 H         2.836738         2.638537        -0.219292
