19
Iteration:  3270
 C         0.050726        -0.640451         0.516988
 C         1.509036        -0.188680         0.198316
 C         1.936731         0.895701        -0.745262
 C         3.353957         0.463591        -0.208430
 C         4.243530        -0.034227        -1.262020
 O         3.448703        -1.251251        -1.451083
 C         2.807060        -1.008441        -0.086253
 C         3.343406         1.139856         1.108251
 O         2.033271         0.483366         1.522783
 H        -0.303019        -0.432567         1.551449
 H        -0.731850        -0.281445        -0.063181
 H         0.122943        -1.810297         0.491520
 H         1.843216         0.795755        -1.910266
 H         1.514124         1.868188        -0.441262
 H         4.309309         0.621562        -2.151652
 H         5.299751        -0.235686        -0.981703
 H         3.181470        -1.740214         0.646911
 H         4.128108         0.954242         1.922513
 H         3.149735         2.187809         1.081493
