19
Iteration:  3635
 C         0.188390        -0.788631         0.484217
 C         1.466417        -0.082919         0.183662
 C         1.978571         1.098295        -0.669992
 C         3.384524         0.522865        -0.224606
 C         4.211342         0.046043        -1.372706
 O         3.278934        -1.144735        -1.518009
 C         2.764053        -0.917592        -0.118508
 C         3.384339         0.840068         1.249015
 O         2.032180         0.367578         1.572639
 H        -0.595252        -0.169080         0.988095
 H        -0.100243        -1.152197        -0.375230
 H         0.367582        -1.544686         1.178648
 H         1.886078         1.254337        -1.820324
 H         1.773033         2.179243        -0.264062
 H         4.413880         0.609591        -2.283085
 H         5.171964        -0.428367        -1.114446
 H         3.068366        -1.814038         0.455167
 H         4.055923         0.121476         1.864084
 H         3.597470         1.936502         1.674835
