19
Iteration:  2968charge 0 multiplicity 1
 C         0.132573        -0.704957         0.532958
 C         1.505225        -0.131299         0.246759
 C         1.873610         0.858520        -0.856698
 C         3.272664         0.520547        -0.309348
 C         4.296813        -0.123755        -1.230144
 O         3.551310        -1.366684        -1.362792
 C         2.828711        -0.996936         0.003650
 C         3.295305         1.178549         1.108083
 O         1.941719         0.643543         1.444125
 H        -0.387653        -0.093147         1.241802
 H        -0.329329        -0.755662        -0.391254
 H         0.126865        -1.599371         1.051888
 H         1.726958         0.470696        -1.866523
 H         1.423912         1.927539        -0.670377
 H         4.519098         0.231440        -2.233403
 H         5.274978        -0.275745        -0.711302
 H         3.207721        -1.509676         0.927939
 H         4.063172         0.864058         1.848965
 H         3.183795         2.274900         1.108919
