19
Iteration:  4447charge 0 multiplicity 1
 C         0.072082        -0.592872         0.469174
 C         1.516924        -0.200022         0.280392
 C         1.926690         0.956963        -0.678438
 C         3.356454         0.556459        -0.219781
 C         4.227226         0.015911        -1.334213
 O         3.249768        -0.974634        -1.596571
 C         2.810624        -0.903605        -0.196318
 C         3.429695         0.841868         1.277462
 O         2.141670         0.221707         1.606476
 H        -0.250941        -1.368493        -0.273105
 H        -0.062526        -1.045498         1.475636
 H        -0.520286         0.265844         0.502109
 H         1.784296         0.658403        -1.786647
 H         1.597201         1.968712        -0.529441
 H         4.488559         0.570864        -2.274317
 H         5.140437        -0.518614        -0.877650
 H         3.102727        -1.689379         0.471553
 H         4.128476         0.345739         1.928262
 H         3.407965         1.938075         1.576482
