19
Iteration:  3362charge 0 multiplicity 1
 C         0.214279        -0.733770         0.496611
 C         1.564218        -0.179230         0.322031
 C         1.979445         0.944079        -0.793148
 C         3.390528         0.469203        -0.181524
 C         4.296310        -0.096595        -1.334640
 O         3.272643        -1.208409        -1.529887
 C         2.811780        -0.927766        -0.118008
 C         3.234173         1.098385         1.245479
 O         1.986428         0.499995         1.553400
 H        -0.519860         0.099285         0.136425
 H         0.035201        -1.715296        -0.248025
 H         0.052465        -0.820439         1.637658
 H         1.857668         0.627232        -1.739691
 H         1.668594         1.963236        -0.668925
 H         4.375982         0.505130        -2.247032
 H         5.277606        -0.453663        -1.117495
 H         3.210943        -1.708750         0.561778
 H         4.049486         0.840751         2.001129
 H         3.109145         2.277922         1.222017
