19
Iteration:  4140
 C         0.097889        -0.638782         0.464930
 C         1.534729        -0.180824         0.208459
 C         2.010905         0.997627        -0.678743
 C         3.417789         0.582092        -0.185739
 C         4.231733        -0.044626        -1.361396
 O         3.226818        -1.020916        -1.580950
 C         2.836330        -0.927912        -0.171009
 C         3.313241         0.941710         1.286424
 O         2.088110         0.199885         1.610263
 H        -0.638338        -0.450173        -0.399942
 H         0.090305        -1.693304         0.841526
 H        -0.025136        -0.016997         1.337887
 H         1.795895         0.817284        -1.720017
 H         1.561035         2.008185        -0.317222
 H         4.403430         0.532916        -2.271664
 H         5.174544        -0.500416        -0.975940
 H         3.152434        -1.669174         0.463848
 H         4.111832         0.466098         1.828825
 H         3.177953         2.061858         1.538781
