19
Iteration:  2175
 C         0.150424        -0.784124         0.452054
 C         1.478760        -0.083847         0.278826
 C         1.837459         0.628220        -0.980031
 C         3.286837         0.486280        -0.312074
 C         4.402821        -0.206314        -1.052795
 O         3.619532        -1.540975        -0.990412
 C         2.848931        -1.001636         0.255480
 C         3.140562         1.442642         0.718971
 O         1.902226         0.923899         1.256327
 H         0.354613        -1.886483         0.422573
 H        -0.341377        -0.592067         1.391337
 H        -0.479681        -0.444775        -0.357819
 H         1.733824         0.095853        -1.859948
 H         1.434504         1.679462        -1.191885
 H         4.699427         0.317217        -1.999927
 H         5.283785        -0.224898        -0.471089
 H         3.373872        -1.629758         0.971298
 H         3.923212         1.483805         1.584131
 H         3.075652         2.476411         0.494679
