19
Iteration:   765
 C         0.195917        -0.825356         0.620430
 C         1.460212        -0.190580         0.146412
 C         1.976411        -0.278823        -1.270308
 C         3.324339         0.413519        -0.635639
 C         4.603308        -0.438289        -0.607789
 O         3.935779        -1.454010         0.212970
 C         2.887865        -0.464296         0.723330
 C         2.842571         1.798879        -0.140457
 O         1.504931         1.273174         0.452583
 H        -0.412002         0.041801         0.964315
 H        -0.231202        -1.391760        -0.178415
 H         0.337818        -1.459650         1.546309
 H         2.020581        -1.352907        -1.605705
 H         1.503642         0.363393        -1.943420
 H         5.079224        -0.790253        -1.529446
 H         5.409078        -0.004713        -0.013198
 H         3.108613        -0.181146         1.763780
 H         3.416234         2.189164         0.696660
 H         2.386554         2.491137        -0.811693
