19
Iteration:   950
 C         0.133355        -0.792914         0.594780
 C         1.440791        -0.175044         0.174743
 C         2.009958        -0.122830        -1.330199
 C         3.303458         0.450669        -0.494911
 C         4.569626        -0.445818        -0.751582
 O         3.936151        -1.533923         0.040575
 C         2.904597        -0.504402         0.625047
 C         2.834631         1.805308         0.037800
 O         1.576531         1.199941         0.646836
 H        -0.810492        -0.259548         0.412606
 H         0.044859        -1.776735         0.112160
 H         0.220308        -0.886424         1.704601
 H         2.243280        -1.119127        -1.654975
 H         1.378533         0.501489        -1.973231
 H         4.924367        -0.718294        -1.772194
 H         5.467629        -0.208181        -0.174154
 H         3.218755        -0.303354         1.692093
 H         3.429036         2.274446         0.751091
 H         2.482372         2.449516        -0.790526
