19
Iteration:  2617
 C         0.155668        -0.718841         0.466063
 C         1.515719        -0.165480         0.249579
 C         1.839062         0.618295        -0.970554
 C         3.398701         0.540764        -0.318339
 C         4.358772        -0.208922        -1.254308
 O         3.444305        -1.357055        -1.106037
 C         2.970006        -0.884229         0.181132
 C         3.259184         1.272764         1.012466
 O         1.842540         0.792874         1.342302
 H        -0.204660        -0.614620         1.557917
 H        -0.516254        -0.167479        -0.201719
 H         0.119240        -1.762351         0.093190
 H         1.763481         0.121540        -1.864689
 H         1.359202         1.559509        -1.006464
 H         4.405596         0.110043        -2.281835
 H         5.336023        -0.210229        -0.751698
 H         3.229259        -1.439848         1.025160
 H         3.913283         0.850712         1.752322
 H         3.195174         2.308046         1.064987
