19
Iteration:  4807charge 0 multiplicity 1
 C         0.124340        -0.640156         0.478899
 C         1.528878        -0.129059         0.288171
 C         1.937305         0.984460        -0.692598
 C         3.435466         0.481310        -0.155544
 C         4.218253         0.050364        -1.327431
 O         3.247144        -1.020427        -1.613282
 C         2.785270        -0.981868        -0.230584
 C         3.420851         0.888120         1.269306
 O         2.035014         0.276814         1.622962
 H        -0.216182        -0.878692        -0.527053
 H         0.267566        -1.494118         1.102765
 H        -0.446180         0.119753         0.894707
 H         1.712610         0.608061        -1.782266
 H         1.627993         2.020249        -0.314793
 H         4.398394         0.793358        -2.176408
 H         5.220095        -0.506440        -1.053743
 H         3.043809        -1.833543         0.356446
 H         4.238845         0.445059         1.873238
 H         3.384856         1.960674         1.462976
