19
Iteration:  4504charge 0 multiplicity 1
 C         0.090078        -0.633346         0.466130
 C         1.506112        -0.162205         0.262786
 C         1.946931         1.094145        -0.558180
 C         3.385616         0.514514        -0.215390
 C         4.218609         0.092086        -1.411807
 O         3.313032        -1.177461        -1.583853
 C         2.808721        -0.913453        -0.226514
 C         3.435958         0.819759         1.324541
 O         2.020767         0.284756         1.578725
 H        -0.281782        -1.302445        -0.250065
 H         0.078850        -1.228446         1.393231
 H        -0.700842         0.070353         0.454494
 H         1.879303         1.108967        -1.742323
 H         1.790778         2.001497         0.012402
 H         4.079094         0.751841        -2.355361
 H         5.306684        -0.282937        -1.446690
 H         3.199438        -1.550969         0.514117
 H         4.146090         0.181849         1.850296
 H         3.609637         1.964593         1.505614
