19
Iteration:  4494
 C         0.068285        -0.612328         0.462023
 C         1.502436        -0.155922         0.244712
 C         1.979374         1.060472        -0.487025
 C         3.411698         0.497235        -0.188268
 C         4.208553         0.035514        -1.485188
 O         3.351981        -1.131768        -1.623487
 C         2.813821        -0.955322        -0.181557
 C         3.403294         0.865626         1.257979
 O         2.037115         0.274502         1.605461
 H        -0.115050        -1.348186        -0.231138
 H        -0.019343        -0.975615         1.479713
 H        -0.549357         0.268213         0.440027
 H         1.643018         1.058142        -1.694144
 H         1.524267         2.002225        -0.108850
 H         4.098393         0.805336        -2.319579
 H         5.295760        -0.191933        -1.223243
 H         3.030383        -1.764581         0.399103
 H         4.109925         0.328951         1.903762
 H         3.265898         1.877504         1.719869
