19
Iteration:  1040charge 0 multiplicity 1
 C         0.286780        -0.801766         0.623573
 C         1.519376        -0.196410         0.155318
 C         2.062181        -0.007105        -1.280484
 C         3.318652         0.468629        -0.512693
 C         4.511124        -0.428673        -0.745886
 O         3.735696        -1.523799        -0.013297
 C         2.953948        -0.540817         0.550467
 C         2.861533         1.753625         0.101646
 O         1.531677         1.177705         0.654531
 H         0.370895        -1.869420         1.003549
 H        -0.261517        -0.203260         1.427837
 H        -0.418843        -0.823508        -0.229413
 H         2.272866        -1.016489        -1.620797
 H         1.394569         0.584370        -1.983942
 H         4.775815        -0.532791        -1.786027
 H         5.477484        -0.323599        -0.226152
 H         3.200901        -0.575496         1.649616
 H         3.426781         1.955904         0.952908
 H         2.474083         2.562909        -0.579214
