19
Iteration:  1495
 C         0.280196        -0.795418         0.545782
 C         1.562413        -0.203076         0.129720
 C         1.990928         0.318295        -1.305293
 C         3.287517         0.543639        -0.508003
 C         4.407841        -0.424653        -0.917281
 O         3.708188        -1.621838        -0.411754
 C         2.924398        -0.642205         0.503344
 C         2.951640         1.675608         0.472476
 O         1.635164         1.056800         1.015990
 H         0.231998        -0.605079         1.674787
 H        -0.589244        -0.311866         0.033297
 H         0.258404        -1.879187         0.324996
 H         1.950340        -0.546111        -2.031488
 H         1.548630         1.227192        -1.648297
 H         4.605577        -0.649221        -1.985605
 H         5.333091        -0.343199        -0.345869
 H         3.233283        -0.704391         1.548752
 H         3.614911         1.812336         1.347428
 H         2.614811         2.555905        -0.065584
