19
Iteration:  3517charge 0 multiplicity 1
 C         0.127615        -0.773187         0.466942
 C         1.484887        -0.106147         0.231184
 C         1.875347         1.021457        -0.688198
 C         3.384118         0.576587        -0.237005
 C         4.264268        -0.025933        -1.328281
 O         3.307426        -1.190692        -1.454628
 C         2.775740        -0.894892        -0.125302
 C         3.433218         0.928451         1.253671
 O         2.080184         0.390197         1.486848
 H         0.242778        -1.877206         0.584390
 H        -0.494445        -0.177489         1.300131
 H        -0.538979        -0.740311        -0.380272
 H         1.747655         1.004231        -1.811307
 H         1.609045         1.978677        -0.366542
 H         4.348155         0.669308        -2.212108
 H         5.297990        -0.265987        -1.025934
 H         2.999122        -1.624237         0.678577
 H         4.175615         0.399970         1.857002
 H         3.424207         1.898495         1.535827
