19
Iteration:  3723
 C         0.053199        -0.643920         0.498686
 C         1.479224        -0.151154         0.261949
 C         1.958495         1.066161        -0.558755
 C         3.341879         0.482632        -0.232084
 C         4.263135         0.052030        -1.395823
 O         3.404561        -1.127610        -1.547329
 C         2.768775        -0.950131        -0.275033
 C         3.300814         0.869928         1.230423
 O         2.116007         0.267320         1.619792
 H        -0.629462        -0.442524        -0.363448
 H         0.060869        -1.652012         0.787172
 H        -0.371647        -0.017643         1.290064
 H         1.566010         1.000253        -1.695411
 H         1.932020         2.127029        -0.244818
 H         4.297826         0.746697        -2.224974
 H         5.263400        -0.262186        -1.126908
 H         3.190029        -1.656310         0.479911
 H         4.098483         0.409113         1.731231
 H         3.434108         1.971595         1.408292
