19
Iteration:  4347charge 0 multiplicity 1
 C         0.050170        -0.636887         0.412149
 C         1.506091        -0.172646         0.313446
 C         1.925090         0.938084        -0.552465
 C         3.426037         0.453740        -0.206253
 C         4.313044         0.064097        -1.376665
 O         3.272903        -1.051922        -1.604418
 C         2.772421        -0.967290        -0.182850
 C         3.396147         0.946669         1.243944
 O         2.111670         0.285268         1.608394
 H        -0.469867        -0.274681        -0.515879
 H        -0.115037        -1.670119         0.562354
 H        -0.310903        -0.057019         1.258979
 H         1.402720         0.929975        -1.671078
 H         1.518792         1.965033        -0.205031
 H         4.507648         0.629407        -2.282747
 H         5.274262        -0.433922        -1.010834
 H         3.138262        -1.770688         0.328693
 H         4.193306         0.595090         1.897566
 H         3.198181         2.013588         1.313110
