19
Iteration:  3434
 C         0.116237        -0.670656         0.539028
 C         1.516097        -0.098181         0.282569
 C         1.906305         1.003234        -0.685100
 C         3.357144         0.495841        -0.256255
 C         4.238167        -0.020630        -1.376503
 O         3.464598        -1.256206        -1.455249
 C         2.799074        -0.960696        -0.146063
 C         3.344848         0.941365         1.201422
 O         1.972326         0.429867         1.518298
 H        -0.164259        -1.064909        -0.387833
 H         0.058406        -1.420833         1.202679
 H        -0.529128         0.184241         0.725354
 H         1.732420         0.788871        -1.815520
 H         1.619031         2.111702        -0.440813
 H         4.112259         0.636342        -2.257776
 H         5.345052        -0.168973        -1.133873
 H         3.190175        -1.546203         0.692327
 H         4.079439         0.461705         1.896049
 H         3.387176         2.123414         1.355586
