19
Iteration:  2007charge 0 multiplicity 1
 C         0.199719        -0.780304         0.486910
 C         1.507529        -0.159734         0.262858
 C         1.840017         0.508593        -1.056991
 C         3.273479         0.469224        -0.374424
 C         4.344323        -0.259765        -1.082095
 O         3.733009        -1.562958        -0.834804
 C         2.894018        -0.843132         0.356992
 C         3.144047         1.487488         0.723221
 O         1.770867         1.049941         1.129200
 H        -0.398552        -0.494402         1.357764
 H        -0.431355        -0.425302        -0.412138
 H         0.412883        -1.908059         0.523291
 H         1.627325        -0.284398        -1.857735
 H         1.340328         1.404736        -1.287754
 H         4.422809        -0.028727        -2.114775
 H         5.307764        -0.268295        -0.531351
 H         3.274730        -1.350144         1.208538
 H         3.876581         1.101491         1.637819
 H         3.225905         2.577380         0.531464
