19
Iteration:   202charge 0 multiplicity 1
 C         0.216820        -0.821659         0.660478
 C         1.502939        -0.241118         0.143072
 C         2.182003        -0.662144        -1.049662
 C         3.247264         0.297260        -0.599199
 C         4.598255        -0.312236        -0.468350
 O         4.011887        -1.299937         0.663262
 C         2.919455        -0.110755         0.857612
 C         2.672126         1.684610        -0.607842
 O         1.368896         1.284640        -0.059112
 H        -0.470102        -0.021523         1.101260
 H        -0.356549        -1.298534        -0.115526
 H         0.460002        -1.497405         1.484433
 H         2.550044        -1.684085        -0.979167
 H         1.610902        -0.432485        -2.004420
 H         5.067939        -0.842529        -1.300954
 H         5.363615         0.340625        -0.001100
 H         3.013791         0.529911         1.837543
 H         3.193083         2.228887         0.235117
 H         2.562240         2.112499        -1.586491
