19
Iteration:  3661
 C         0.129682        -0.730602         0.435071
 C         1.494933        -0.148688         0.338258
 C         1.919475         1.014701        -0.581437
 C         3.405067         0.463316        -0.179626
 C         4.209028         0.003195        -1.353590
 O         3.333806        -1.094590        -1.622959
 C         2.751228        -0.916254        -0.198689
 C         3.476932         0.906838         1.244711
 O         2.017206         0.410744         1.594866
 H        -0.521004         0.066800         0.088987
 H        -0.093163        -1.615745        -0.300033
 H        -0.175366        -1.023581         1.433439
 H         1.702687         0.779660        -1.689479
 H         1.627341         2.005910        -0.378385
 H         4.266360         0.778147        -2.204823
 H         5.236595        -0.408803        -1.263408
 H         3.166368        -1.781753         0.334968
 H         4.116962         0.230821         1.984749
 H         3.574935         1.977080         1.541943
