19
Iteration:  1956
 C         0.237989        -0.772440         0.579620
 C         1.468334        -0.079029         0.152018
 C         2.002264         0.545530        -1.097362
 C         3.339984         0.513635        -0.344283
 C         4.428918        -0.352846        -1.079518
 O         3.601748        -1.570212        -0.750766
 C         2.872403        -0.838279         0.262984
 C         2.968935         1.588482         0.689445
 O         1.802881         0.907512         1.171007
 H         0.558068        -1.548066         1.288662
 H        -0.474361        -0.156915         1.071164
 H        -0.164121        -1.302638        -0.246603
 H         2.025153        -0.232199        -1.979769
 H         1.613609         1.541081        -1.296842
 H         4.418357        -0.338472        -2.206395
 H         5.390739        -0.446498        -0.548983
 H         3.262302        -1.319814         1.239259
 H         3.626526         1.911366         1.445841
 H         2.598912         2.415551         0.121097
