19
Iteration:  2263
 C         0.047423        -0.888293         0.443597
 C         1.432123        -0.162069         0.299350
 C         1.871557         0.590681        -0.914789
 C         3.305696         0.509542        -0.341424
 C         4.348220        -0.241397        -1.099807
 O         3.565595        -1.494114        -1.043505
 C         2.917937        -0.881532         0.161596
 C         3.230851         1.445831         0.870171
 O         1.937491         0.967776         1.263993
 H        -0.634711        -0.631685         1.319599
 H        -0.525805        -0.540513        -0.476964
 H         0.229336        -1.963850         0.293169
 H         1.935267         0.276899        -1.939929
 H         1.492103         1.644004        -0.827759
 H         4.729551         0.116537        -2.121055
 H         5.276595        -0.457208        -0.516913
 H         3.296270        -1.243514         1.059694
 H         4.081159         1.482024         1.699273
 H         3.378973         2.444145         0.521080
