19
Iteration:  2284
 C         0.229906        -0.806671         0.409392
 C         1.518332        -0.135484         0.296751
 C         1.848679         0.589950        -1.033999
 C         3.362709         0.549526        -0.430421
 C         4.410833        -0.309907        -1.109230
 O         3.445910        -1.420756        -1.015964
 C         2.891876        -0.814151         0.234150
 C         3.192419         1.376934         0.877466
 O         1.820933         0.880696         1.361164
 H        -0.407769        -0.276415         1.262666
 H        -0.391632        -0.815058        -0.547597
 H         0.338996        -1.888119         0.692631
 H         1.691435        -0.139165        -1.782173
 H         1.454270         1.591360        -1.243780
 H         4.630979        -0.056154        -2.202881
 H         5.441154        -0.330869        -0.560667
 H         3.337880        -1.333493         1.008174
 H         4.171229         1.183843         1.601522
 H         3.156021         2.486047         0.883067
