19
Iteration:  4889charge 0 multiplicity 1
 C         0.065699        -0.639627         0.409867
 C         1.518151        -0.191288         0.292891
 C         1.967654         0.966026        -0.655980
 C         3.404698         0.504812        -0.140626
 C         4.203532         0.060143        -1.344495
 O         3.223060        -1.065402        -1.614085
 C         2.807515        -0.945520        -0.192677
 C         3.481567         0.959497         1.336794
 O         2.085305         0.262808         1.592434
 H        -0.119668        -1.191022        -0.581950
 H        -0.134155        -1.348094         1.272671
 H        -0.578160         0.330953         0.628622
 H         1.934863         0.756164        -1.652143
 H         1.546657         1.940427        -0.596920
 H         4.161250         0.637280        -2.276121
 H         5.198110        -0.476014        -1.282562
 H         3.245381        -1.679478         0.368538
 H         4.206384         0.466748         1.959183
 H         3.373587         2.008285         1.593562
