19
Iteration:  2701
 C         0.200378        -0.762163         0.460067
 C         1.542626        -0.183065         0.240678
 C         1.884058         0.672167        -0.952202
 C         3.350729         0.521979        -0.308451
 C         4.332249        -0.209433        -1.183845
 O         3.455320        -1.354469        -1.163218
 C         2.836405        -0.902414         0.104268
 C         3.209648         1.380126         0.951659
 O         1.922475         0.722974         1.429426
 H        -0.432064         0.033931         0.835835
 H        -0.296121        -1.037692        -0.509084
 H         0.116176        -1.506264         1.264486
 H         1.991080         0.170502        -1.953868
 H         1.402264         1.685030        -0.983816
 H         4.569511         0.267004        -2.171610
 H         5.272073        -0.457570        -0.638812
 H         3.203142        -1.586780         0.996647
 H         3.992429         0.998404         1.702146
 H         3.018548         2.508395         1.011827
