19
Iteration:  2575
 C         0.249227        -0.756478         0.518890
 C         1.526154        -0.083387         0.208719
 C         1.945148         0.781197        -0.979337
 C         3.374859         0.503978        -0.259349
 C         4.315380        -0.218215        -1.170170
 O         3.478495        -1.452875        -1.085418
 C         2.783180        -0.934769         0.114680
 C         3.121611         1.405974         0.876143
 O         1.923435         0.690130         1.382575
 H         0.529123        -1.498443         1.280677
 H        -0.543295        -0.245119         0.877293
 H        -0.066243        -1.240663        -0.365388
 H         1.844309         0.431049        -2.008165
 H         1.619799         1.879938        -0.886096
 H         4.592865         0.102116        -2.186125
 H         5.254582        -0.646540        -0.695096
 H         2.977895        -1.563289         0.904513
 H         3.820385         1.398789         1.634503
 H         2.907549         2.382460         0.537333
