19
Iteration:    69charge 0 multiplicity 1
 C         0.181590        -0.711325         0.746398
 C         1.559990        -0.304838         0.157042
 C         2.332147        -0.723725        -1.226625
 C         3.380972         0.363018        -0.585491
 C         4.626774        -0.449040        -0.302929
 O         3.924528        -1.089774         0.734765
 C         2.958174        -0.090484         0.800164
 C         2.516628         1.632266        -0.716380
 O         1.280909         1.169582        -0.039083
 H        -0.506748        -0.708122        -0.076110
 H         0.218887        -1.723779         1.164240
 H        -0.120713        -0.008434         1.515566
 H         2.737002        -1.753647        -1.254185
 H         1.886204        -0.436109        -2.153406
 H         4.885835        -1.145893        -1.020980
 H         5.534157         0.080197         0.087488
 H         3.152929         0.678086         1.614983
 H         3.002193         2.445732        -0.086901
 H         2.397837         1.904813        -1.811143
