19
Iteration:  1983
 C         0.145232        -0.827209         0.502887
 C         1.492293        -0.192824         0.227980
 C         1.902283         0.414517        -1.168593
 C         3.289047         0.592527        -0.469047
 C         4.461672        -0.289595        -1.062522
 O         3.515926        -1.507501        -0.739523
 C         2.960248        -0.706569         0.301248
 C         3.146285         1.498523         0.764827
 O         1.804115         0.945834         1.212249
 H        -0.137785        -0.997376         1.561786
 H        -0.596997        -0.047373         0.115898
 H         0.142225        -1.830674        -0.046484
 H         1.914292        -0.310027        -1.931549
 H         1.364510         1.327120        -1.509534
 H         4.622044        -0.314171        -2.136676
 H         5.369892        -0.388447        -0.417697
 H         3.462129        -0.997264         1.188784
 H         4.074178         1.232348         1.434686
 H         3.051137         2.624012         0.583065
