19
Iteration:  4678charge 0 multiplicity 1
 C         0.153527        -0.695008         0.404438
 C         1.481330        -0.156543         0.276553
 C         1.996115         0.970094        -0.668126
 C         3.450486         0.494157        -0.160977
 C         4.242102        -0.040554        -1.384839
 O         3.156097        -0.984495        -1.631610
 C         2.780952        -0.848929        -0.159479
 C         3.375154         0.905414         1.361903
 O         2.140202         0.279184         1.607066
 H         0.046762        -1.571217        -0.336288
 H        -0.043423        -1.203938         1.471947
 H        -0.723677         0.095048         0.409049
 H         1.607043         0.919749        -1.707125
 H         1.769212         1.971578        -0.463182
 H         4.410738         0.676819        -2.209505
 H         5.092205        -0.626966        -1.238947
 H         3.154214        -1.785264         0.449084
 H         4.058204         0.423500         2.044986
 H         3.286880         2.019510         1.491326
