19
Iteration:  2211charge 0 multiplicity 1
 C         0.069964        -0.753262         0.555194
 C         1.523492        -0.168879         0.192689
 C         2.006273         0.625449        -1.125132
 C         3.349797         0.637752        -0.414319
 C         4.364303        -0.273988        -1.177739
 O         3.546746        -1.514704        -0.947540
 C         2.995933        -0.832977         0.208549
 C         3.078367         1.440737         0.976509
 O         1.819323         0.785319         1.285875
 H         0.141758        -1.383072         1.372013
 H        -0.480136         0.148706         0.886761
 H        -0.507495        -1.255251        -0.196684
 H         2.152092        -0.202353        -1.943005
 H         1.400536         1.529934        -1.409913
 H         4.485736        -0.096098        -2.265570
 H         5.295863        -0.500707        -0.719644
 H         3.296070        -1.109588         1.322311
 H         3.807179         1.033258         1.602097
 H         3.049833         2.585569         0.909451
