19
Iteration:  2215
 C         0.082219        -0.732407         0.560088
 C         1.553504        -0.152859         0.196230
 C         2.015879         0.630317        -1.142316
 C         3.358746         0.631302        -0.399644
 C         4.340521        -0.268140        -1.182432
 O         3.538753        -1.522696        -0.948434
 C         2.995633        -0.817145         0.200085
 C         3.038751         1.425322         0.981983
 O         1.824604         0.757132         1.270267
 H         0.183910        -1.253435         1.617134
 H        -0.555220         0.130529         0.811655
 H        -0.386105        -1.356069        -0.262711
 H         2.060496        -0.183303        -1.875220
 H         1.467755         1.468210        -1.470610
 H         4.447161        -0.178927        -2.253544
 H         5.407427        -0.514164        -0.778774
 H         3.220445        -1.009612         1.249591
 H         3.840311         1.161533         1.754921
 H         3.032585         2.564721         1.048265
