19
Iteration:  3315
 C         0.225546        -0.756051         0.418776
 C         1.511892        -0.108123         0.230093
 C         1.867773         0.954104        -0.820815
 C         3.339502         0.622601        -0.240717
 C         4.167969        -0.087609        -1.297224
 O         3.344947        -1.273716        -1.360302
 C         2.874029        -0.868947        -0.079382
 C         3.379748         0.987505         1.192993
 O         2.008345         0.506573         1.568309
 H        -0.446673        -0.183550         1.139993
 H        -0.246631        -0.566157        -0.561321
 H         0.281694        -1.880478         0.789920
 H         1.733263         0.504004        -1.858113
 H         1.402621         1.975200        -0.771502
 H         4.333783         0.234474        -2.311251
 H         5.168415        -0.463243        -1.001494
 H         3.293999        -1.492681         0.740775
 H         4.123483         0.405247         1.874175
 H         3.458504         1.998909         1.345486
