19
Iteration:   112charge 0 multiplicity 1
 C         0.242423        -0.872341         0.781129
 C         1.421118        -0.143855         0.121165
 C         2.195943        -0.723192        -1.149774
 C         3.260867         0.249209        -0.543708
 C         4.578179        -0.357402        -0.278567
 O         4.031131        -1.172283         0.667480
 C         2.934955        -0.164555         0.831155
 C         2.692422         1.625854        -0.690071
 O         1.335403         1.352434        -0.158929
 H         0.333137        -1.890920         0.465061
 H         0.264806        -0.752541         1.876455
 H        -0.698925        -0.554062         0.334967
 H         2.418927        -1.804226        -1.114937
 H         1.897034        -0.363157        -2.106903
 H         5.060480        -0.829199        -1.070262
 H         5.287816         0.400469         0.184383
 H         3.100218         0.472049         1.730199
 H         3.112264         2.362879        -0.042631
 H         2.599743         1.916037        -1.679437
