19
Iteration:  1557
 C         0.155887        -0.793164         0.577954
 C         1.476347        -0.155827         0.241159
 C         1.927879         0.270477        -1.143767
 C         3.287822         0.492048        -0.496887
 C         4.480341        -0.292225        -0.895416
 O         3.752208        -1.568614        -0.521160
 C         2.916565        -0.818115         0.431682
 C         2.992198         1.591161         0.478655
 O         1.719670         1.120297         0.925848
 H        -0.650252        -0.075208         0.359082
 H         0.021571        -1.663489        -0.062019
 H         0.076420        -1.137979         1.569439
 H         1.727600        -0.593949        -1.871469
 H         1.530231         1.174697        -1.594402
 H         4.714058        -0.230375        -1.951126
 H         5.363599        -0.058348        -0.249693
 H         3.311527        -0.960842         1.492891
 H         3.691470         1.827546         1.203256
 H         2.976070         2.540674        -0.124799
