19
Iteration:  3934charge 0 multiplicity 1
 C         0.190324        -0.712339         0.362009
 C         1.551573        -0.138254         0.326508
 C         1.898386         1.056982        -0.599593
 C         3.378255         0.572351        -0.198673
 C         4.242165        -0.035394        -1.389339
 O         3.204376        -1.088441        -1.522855
 C         2.790440        -0.976079        -0.195014
 C         3.476133         0.915892         1.287516
 O         2.043733         0.315876         1.580704
 H        -0.258722        -0.613807        -0.675769
 H         0.087914        -1.750210         0.680231
 H        -0.470121        -0.065128         0.935239
 H         1.519627         0.919770        -1.702044
 H         1.572680         2.000030        -0.186924
 H         4.317723         0.701991        -2.238503
 H         5.200490        -0.351172        -1.074826
 H         3.116063        -1.843074         0.498366
 H         4.275097         0.371404         1.682356
 H         3.495029         1.966788         1.591695
