19
Iteration:   965charge 0 multiplicity 1
 C         0.227927        -0.737192         0.619515
 C         1.526529        -0.208628         0.087591
 C         2.059323        -0.105758        -1.292056
 C         3.310179         0.460998        -0.602321
 C         4.526559        -0.427773        -0.699474
 O         3.836290        -1.511654         0.064206
 C         2.959301        -0.582373         0.568029
 C         2.753863         1.747353         0.024242
 O         1.548396         1.186698         0.736813
 H        -0.547085        -0.349823        -0.112678
 H         0.205881        -1.882593         0.795167
 H         0.022271        -0.330098         1.632428
 H         2.235463        -1.098237        -1.744949
 H         1.648368         0.570877        -2.126341
 H         4.705673        -0.798170        -1.699153
 H         5.440598         0.013314        -0.277993
 H         3.028738        -0.354772         1.631383
 H         3.484013         2.223912         0.894441
 H         2.413341         2.630491        -0.698919
