19
Iteration:  2944
 C         0.051176        -0.732869         0.530203
 C         1.474268        -0.159800         0.221983
 C         1.958193         0.802049        -0.857179
 C         3.425767         0.461861        -0.229923
 C         4.333515        -0.086119        -1.289327
 O         3.475070        -1.314705        -1.232868
 C         2.875303        -0.904886        -0.027198
 C         3.231106         1.200560         1.012342
 O         1.947358         0.599451         1.454677
 H        -0.211048        -0.328065         1.517424
 H        -0.551594        -0.406632        -0.229533
 H        -0.110405        -1.774830         0.747521
 H         1.818926         0.533283        -1.868657
 H         1.544875         1.962336        -0.583122
 H         4.201546         0.410827        -2.255111
 H         5.438250        -0.357533        -1.205278
 H         2.989235        -1.628671         0.844067
 H         3.980309         0.996459         1.794683
 H         3.109105         2.239485         0.915860
