19
Iteration:  4870
 C         0.150099        -0.729931         0.374405
 C         1.513994        -0.096502         0.298245
 C         1.994702         1.033480        -0.602798
 C         3.413352         0.469717        -0.215832
 C         4.207504         0.057474        -1.403297
 O         3.229827        -1.039800        -1.535516
 C         2.765899        -0.883672        -0.120512
 C         3.387104         0.791216         1.207331
 O         2.085753         0.342926         1.628656
 H        -0.094304        -1.439055        -0.460042
 H        -0.010469        -1.267869         1.281680
 H        -0.739583        -0.029201         0.220720
 H         1.679899         0.856872        -1.579840
 H         1.774570         2.029596        -0.185706
 H         4.376955         0.643731        -2.287041
 H         5.115721        -0.416337        -1.174171
 H         3.122133        -1.823983         0.550204
 H         4.223025         0.210090         1.758930
 H         3.464375         1.864331         1.490684
