19
Iteration:  2218
 C         0.106701        -0.714245         0.569222
 C         1.565373        -0.143764         0.190622
 C         2.016033         0.613384        -1.142018
 C         3.367767         0.619027        -0.375739
 C         4.339253        -0.274147        -1.184966
 O         3.535422        -1.521148        -0.941741
 C         2.973593        -0.795380         0.188969
 C         3.027695         1.413071         0.978848
 O         1.824565         0.741343         1.262844
 H         0.207916        -1.136894         1.655494
 H        -0.612136         0.114557         0.707850
 H        -0.232231        -1.404801        -0.239111
 H         1.958480        -0.123840        -1.852383
 H         1.500044         1.526780        -1.538615
 H         4.409862        -0.187897        -2.300449
 H         5.377301        -0.441629        -0.832830
 H         3.241476        -1.013107         1.171867
 H         3.836996         1.259151         1.849555
 H         2.951538         2.444683         1.100504
