19
Iteration:  3342
 C         0.100034        -0.805153         0.451822
 C         1.464694        -0.136181         0.276324
 C         2.018210         0.872998        -0.682669
 C         3.422876         0.494274        -0.187753
 C         4.286410        -0.037799        -1.320277
 O         3.290297        -1.169279        -1.467318
 C         2.809399        -0.977591        -0.028383
 C         3.398126         1.078194         1.123125
 O         1.978709         0.570379         1.505397
 H        -0.808758        -0.170349         0.607172
 H        -0.148781        -1.329755        -0.561917
 H         0.289360        -1.458638         1.272637
 H         1.750307         0.787586        -1.729794
 H         1.721456         1.854313        -0.404657
 H         4.238051         0.446463        -2.320418
 H         5.260442        -0.496548        -1.149923
 H         3.170533        -1.796149         0.606801
 H         4.064188         0.730001         1.898607
 H         3.315293         2.329705         1.143091
