19
Iteration:   699
 C         0.209749        -0.850182         0.684569
 C         1.511588        -0.232764         0.126335
 C         2.097654        -0.203290        -1.282725
 C         3.385261         0.445116        -0.471475
 C         4.606405        -0.489272        -0.632825
 O         3.870737        -1.523453         0.312515
 C         2.971408        -0.434276         0.702094
 C         2.633881         1.836252        -0.232448
 O         1.449426         1.292414         0.349287
 H         0.494609        -1.744064         1.289379
 H        -0.106191        -0.126742         1.380731
 H        -0.694950        -0.968232         0.028215
 H         2.467795        -1.135275        -1.738554
 H         1.781550         0.537081        -1.900987
 H         4.888202        -0.914000        -1.612506
 H         5.536618        -0.143406        -0.158500
 H         3.078523        -0.223379         1.772808
 H         3.207645         2.552693         0.352767
 H         2.384831         2.193648        -1.150353
