19
Iteration:  2642
 C         0.077760        -0.753461         0.482642
 C         1.440972        -0.161374         0.238440
 C         1.879963         0.690349        -0.942376
 C         3.321665         0.457872        -0.288060
 C         4.267561        -0.112806        -1.208020
 O         3.630550        -1.475977        -1.114559
 C         2.868598        -0.952837         0.078047
 C         3.245445         1.262478         0.934689
 O         1.946349         0.880338         1.434286
 H        -0.397031        -0.482228         1.382443
 H        -0.509017        -0.472227        -0.329269
 H         0.175101        -1.797432         0.351079
 H         1.888277         0.368015        -2.064787
 H         1.495193         1.780000        -0.919499
 H         4.331935         0.369622        -2.198716
 H         5.292626        -0.064626        -0.703899
 H         3.121593        -1.446313         0.973758
 H         3.987253         0.960885         1.605163
 H         3.318895         2.326505         0.808309
