19
Iteration:  4463
 C         0.042940        -0.557197         0.470109
 C         1.526774        -0.155194         0.256519
 C         1.966535         0.931666        -0.648817
 C         3.388992         0.503139        -0.162357
 C         4.280612         0.111434        -1.307761
 O         3.169236        -1.068766        -1.650341
 C         2.822758        -0.921007        -0.167138
 C         3.407885         0.916981         1.244488
 O         2.139672         0.153722         1.641822
 H        -0.199425        -1.321563        -0.259254
 H        -0.080203        -0.871064         1.490753
 H        -0.562780         0.389014         0.166625
 H         1.796744         0.437085        -1.917912
 H         1.483958         1.981466        -0.537897
 H         4.391421         0.911077        -2.044187
 H         5.222135        -0.308229        -1.045970
 H         3.375885        -1.726517         0.453914
 H         4.351689         0.415134         1.665814
 H         3.192977         1.944166         1.499555
