19
Iteration:  2672charge 0 multiplicity 1
 C         0.138305        -0.689272         0.563981
 C         1.506029        -0.137365         0.214340
 C         1.937400         0.739398        -0.959984
 C         3.405755         0.589824        -0.346828
 C         4.345941        -0.261750        -1.251309
 O         3.511412        -1.429497        -1.060077
 C         2.899206        -0.788411         0.068840
 C         3.099057         1.329994         0.963746
 O         1.911458         0.565127         1.360045
 H        -0.394236        -0.087879         1.440545
 H        -0.507530        -0.556271        -0.308396
 H         0.150199        -1.777787         0.819999
 H         1.982560         0.338100        -1.879660
 H         1.510572         1.690488        -1.014033
 H         4.453088         0.097267        -2.252482
 H         5.317676        -0.370902        -0.804027
 H         3.197353        -1.242606         0.987385
 H         3.833954         1.150591         1.759687
 H         2.868684         2.370075         0.976507
