19
Iteration:  2280charge 0 multiplicity 1
 C         0.166769        -0.835727         0.391242
 C         1.522638        -0.155908         0.312464
 C         1.827298         0.618286        -1.006301
 C         3.364322         0.533328        -0.385474
 C         4.430491        -0.307284        -1.118669
 O         3.471431        -1.422633        -1.036811
 C         2.887156        -0.817744         0.221395
 C         3.234552         1.380884         0.848447
 O         1.838697         0.931845         1.360689
 H        -0.440770        -0.422497         1.259239
 H        -0.377188        -0.782237        -0.516229
 H         0.251099        -1.910838         0.633462
 H         1.650507        -0.195260        -1.716460
 H         1.332506         1.564417        -1.227844
 H         4.667457        -0.110260        -2.136177
 H         5.375247        -0.330143        -0.505541
 H         3.444568        -1.350093         1.081639
 H         3.992473         1.072335         1.548047
 H         3.096145         2.513888         0.802912
