19
Iteration:   990charge 0 multiplicity 1
 C         0.143335        -0.810997         0.634174
 C         1.489569        -0.193344         0.147006
 C         2.005394        -0.079618        -1.267550
 C         3.336582         0.432338        -0.496203
 C         4.559135        -0.411249        -0.696464
 O         3.827184        -1.536965        -0.045165
 C         3.006171        -0.577084         0.637447
 C         2.877207         1.795805         0.057380
 O         1.519836         1.207959         0.586871
 H        -0.420883        -1.284520        -0.152012
 H         0.343371        -1.504598         1.399515
 H        -0.498295        -0.048685         1.121148
 H         2.102159        -1.020911        -1.922755
 H         1.429564         0.671846        -1.752525
 H         4.864285        -0.673877        -1.740876
 H         5.472470        -0.031102        -0.183698
 H         3.313957        -0.330890         1.649108
 H         3.360500         2.290980         0.990461
 H         2.627982         2.511018        -0.695970
