19
Iteration:  1198
 C         0.288760        -0.812813         0.555307
 C         1.532533        -0.187716         0.225958
 C         1.971435         0.000145        -1.222251
 C         3.350928         0.472764        -0.499507
 C         4.491020        -0.414667        -0.822400
 O         3.735312        -1.574042        -0.178696
 C         2.937779        -0.557329         0.528954
 C         2.906503         1.736140         0.256253
 O         1.527643         1.219056         0.715577
 H        -0.026999        -1.105619        -0.465556
 H         0.397616        -1.619871         1.285311
 H        -0.509715        -0.132022         0.885502
 H         2.012537        -0.896119        -1.732804
 H         1.370780         0.812609        -1.728092
 H         4.932269        -0.634435        -1.773183
 H         5.360007        -0.396007        -0.171610
 H         3.450449        -0.322738         1.448187
 H         3.449301         1.706443         1.242632
 H         2.759645         2.618096        -0.279131
