19
Iteration:  4263charge 0 multiplicity 1
 C         0.164522        -0.717862         0.329156
 C         1.471740        -0.146131         0.301536
 C         2.013932         1.024856        -0.540027
 C         3.391769         0.416969        -0.153505
 C         4.233597         0.048418        -1.352127
 O         3.188327        -1.008270        -1.595172
 C         2.741214        -0.944377        -0.197023
 C         3.426398         0.904068         1.204803
 O         2.104151         0.339527         1.650417
 H         0.206878        -1.562351        -0.436003
 H         0.021904        -1.140054         1.395247
 H        -0.633281         0.026504         0.042247
 H         1.756117         0.825911        -1.636048
 H         1.731284         1.906050        -0.121567
 H         4.349020         0.664315        -2.288845
 H         5.150743        -0.436021        -1.040787
 H         3.031817        -1.893159         0.365630
 H         4.187886         0.421031         1.844819
 H         3.351305         2.034824         1.433640
