19
Iteration:  4963charge 0 multiplicity 1
 C         0.165813        -0.704839         0.498305
 C         1.509365        -0.115581         0.219377
 C         1.880807         1.079004        -0.695576
 C         3.327486         0.508791        -0.259411
 C         4.231121         0.037981        -1.327175
 O         3.302860        -1.108142        -1.510815
 C         2.746326        -0.903339        -0.218011
 C         3.457999         0.777120         1.261867
 O         2.065720         0.350060         1.630159
 H        -0.303928        -0.538433        -0.433254
 H         0.196235        -1.784216         0.731386
 H        -0.299763        -0.071634         1.180475
 H         1.735083         0.871166        -1.923940
 H         1.532124         2.136671        -0.397072
 H         4.409297         0.757648        -2.160945
 H         5.259244        -0.324109        -1.008086
 H         2.977432        -1.790505         0.618561
 H         4.193088         0.086854         1.696115
 H         3.727520         1.811195         1.589348
