19
Iteration:  2609
 C         0.126750        -0.725649         0.493266
 C         1.525635        -0.175360         0.235225
 C         1.879215         0.625041        -1.042584
 C         3.443339         0.583908        -0.263265
 C         4.373378        -0.251249        -1.289713
 O         3.422204        -1.372466        -1.099739
 C         2.960251        -0.813571         0.140415
 C         3.172915         1.302739         1.020666
 O         1.852863         0.751351         1.404260
 H        -0.095263        -0.821454         1.530920
 H        -0.558670        -0.134045         0.007803
 H         0.117399        -1.711872         0.129855
 H         1.915471         0.106968        -2.082169
 H         1.386850         1.678250        -0.999045
 H         4.504634         0.075051        -2.336960
 H         5.361733        -0.647642        -0.830777
 H         3.326647        -1.314693         1.031181
 H         3.872843         0.952101         1.732169
 H         3.141882         2.385993         0.979085
