19
Iteration:  3274
 C         0.051270        -0.656936         0.524286
 C         1.511976        -0.190752         0.206473
 C         1.916086         0.929333        -0.778496
 C         3.347885         0.480223        -0.217724
 C         4.276834        -0.074811        -1.281724
 O         3.447480        -1.230126        -1.414450
 C         2.803675        -0.977881        -0.089577
 C         3.350456         1.092415         1.119344
 O         2.036401         0.461292         1.525861
 H        -0.337554        -0.421324         1.546898
 H        -0.849974        -0.307594        -0.157001
 H         0.122514        -1.782567         0.462587
 H         1.869812         0.863925        -1.776890
 H         1.536297         1.893342        -0.466187
 H         4.137174         0.523326        -2.176222
 H         5.306611        -0.170548        -0.968679
 H         3.222084        -1.674708         0.655741
 H         4.167674         1.013044         1.912821
 H         3.145169         2.312464         0.947249
