19
Iteration:  1617
 C         0.157235        -0.842623         0.531953
 C         1.484691        -0.191713         0.168543
 C         1.923761         0.311678        -1.149932
 C         3.328310         0.444539        -0.368442
 C         4.450341        -0.369589        -0.971691
 O         3.754936        -1.536779        -0.550011
 C         2.937940        -0.810855         0.455891
 C         3.068190         1.674209         0.467221
 O         1.662429         1.150888         1.025123
 H        -0.306886        -1.251372        -0.365182
 H         0.280769        -1.721986         1.205703
 H        -0.578617        -0.065080         0.949705
 H         1.970804        -0.396102        -1.901057
 H         1.393272         1.257215        -1.437772
 H         4.323942        -0.175299        -2.043424
 H         5.486385        -0.317371        -0.740912
 H         3.235759        -0.999855         1.454481
 H         3.736840         1.920613         1.413610
 H         2.733700         2.518947        -0.168831
