19
Iteration:  1551charge 0 multiplicity 1
 C         0.161626        -0.783640         0.566714
 C         1.533715        -0.164775         0.292427
 C         1.939363         0.274745        -1.172964
 C         3.252498         0.482397        -0.429091
 C         4.436580        -0.264059        -0.858347
 O         3.756708        -1.577201        -0.526836
 C         2.928764        -0.851919         0.400524
 C         2.990774         1.574523         0.415740
 O         1.695256         1.164375         0.915455
 H        -0.721953        -0.104677         0.524632
 H         0.071781        -1.510557        -0.285963
 H         0.211896        -1.302705         1.610013
 H         1.865127        -0.588599        -1.807879
 H         1.504522         1.228648        -1.546639
 H         4.661484        -0.360115        -1.954918
 H         5.400159        -0.136042        -0.370236
 H         3.303090        -1.024460         1.383047
 H         3.702271         1.808241         1.368131
 H         3.005188         2.572339        -0.151604
