19
Iteration:   632charge 0 multiplicity 1
 C         0.131428        -0.734077         0.664547
 C         1.409942        -0.209558         0.133937
 C         2.052301        -0.311706        -1.278865
 C         3.298650         0.332818        -0.542947
 C         4.634175        -0.403478        -0.555980
 O         4.035056        -1.375200         0.373212
 C         2.993765        -0.424366         0.680233
 C         2.734991         1.682581        -0.284477
 O         1.444493         1.252610         0.359427
 H        -0.648932        -0.587794        -0.094105
 H         0.206111        -1.819758         0.745019
 H        -0.233323        -0.259415         1.583198
 H         2.290184        -1.290568        -1.564360
 H         1.547600         0.309669        -1.929755
 H         5.016540        -0.884202        -1.478708
 H         5.438741         0.211756        -0.133990
 H         3.050399        -0.176431         1.744130
 H         3.220553         2.359672         0.395831
 H         2.535620         2.104699        -1.210224
