19
Iteration:   651
 C         0.091840        -0.796938         0.613284
 C         1.490397        -0.258941         0.192141
 C         2.008762        -0.370737        -1.238957
 C         3.275417         0.379237        -0.684128
 C         4.601745        -0.340039        -0.560176
 O         4.012329        -1.433279         0.353923
 C         2.918407        -0.437371         0.762246
 C         2.791953         1.786738        -0.242780
 O         1.514108         1.272028         0.329900
 H        -0.344416        -1.235949        -0.285876
 H         0.115906        -1.635350         1.413146
 H        -0.474611         0.014714         1.059473
 H         2.126154        -1.419085        -1.449349
 H         1.318032         0.175728        -1.967829
 H         5.121831        -0.653345        -1.465780
 H         5.289448         0.254459         0.018808
 H         3.347525         0.112874         1.637733
 H         3.440842         1.965258         0.572288
 H         2.652874         2.647685        -1.000790
