19
Iteration:  1758
 C         0.146092        -0.754590         0.534934
 C         1.469252        -0.162116         0.183143
 C         1.962011         0.376343        -1.147602
 C         3.362682         0.515257        -0.414708
 C         4.400816        -0.355875        -1.047863
 O         3.711571        -1.536785        -0.597306
 C         2.946545        -0.736334         0.399825
 C         2.963409         1.598079         0.575491
 O         1.789298         0.935796         1.078654
 H        -0.095975        -0.223218         1.418467
 H        -0.637087        -0.520214        -0.196487
 H         0.229474        -1.854844         0.689673
 H         1.837825        -0.409094        -1.900512
 H         1.473439         1.349262        -1.502151
 H         4.544000        -0.288991        -2.155551
 H         5.453949        -0.322235        -0.641431
 H         3.091626        -1.035487         1.491123
 H         3.545224         1.639690         1.488115
 H         2.695563         2.690001         0.175747
