19
Iteration:   421
 C         0.295178        -0.868847         0.739104
 C         1.495635        -0.203169         0.123084
 C         2.127940        -0.404622        -1.302574
 C         3.299095         0.355528        -0.537296
 C         4.595691        -0.474246        -0.464037
 O         3.940639        -1.347635         0.566460
 C         2.916997        -0.255607         0.784813
 C         2.649247         1.718820        -0.493664
 O         1.398365         1.275226         0.148025
 H        -0.587457        -0.199569         0.448630
 H         0.183954        -1.927100         0.336834
 H         0.492984        -0.971275         1.856710
 H         2.475628        -1.438757        -1.583730
 H         1.681320         0.213397        -2.120630
 H         4.879344        -1.142494        -1.349530
 H         5.526958         0.099748        -0.125898
 H         3.008153         0.415353         1.706019
 H         3.188356         2.545004         0.212612
 H         2.321259         2.343681        -1.428831
