19
Iteration:  3805
 C         0.109705        -0.733670         0.374785
 C         1.514048        -0.172577         0.284432
 C         1.999944         1.047525        -0.528114
 C         3.469870         0.492048        -0.150205
 C         4.226082        -0.027314        -1.428660
 O         3.196557        -1.042086        -1.647426
 C         2.698803        -0.949228        -0.237762
 C         3.364046         0.953500         1.306961
 O         2.170562         0.297958         1.669216
 H         0.180087        -1.668291        -0.047062
 H        -0.392904        -0.801536         1.356879
 H        -0.547228        -0.032038        -0.100202
 H         1.839300         1.038728        -1.659321
 H         1.612488         2.024605        -0.060269
 H         4.282961         0.725225        -2.249098
 H         5.231123        -0.473119        -1.170187
 H         3.026979        -1.802027         0.365165
 H         4.211839         0.709089         2.114093
 H         3.247213         2.032963         1.198296
