19
Iteration:  2724
 C         0.041452        -0.875090         0.473224
 C         1.453353        -0.077836         0.329689
 C         1.907520         0.763500        -0.902978
 C         3.387911         0.425498        -0.284715
 C         4.372516        -0.142142        -1.237993
 O         3.506463        -1.380970        -1.205104
 C         2.860122        -0.951819         0.090738
 C         3.263137         1.263128         0.979618
 O         1.914551         0.837935         1.375491
 H        -0.920487        -0.342909         0.252893
 H         0.049722        -1.741814        -0.224115
 H        -0.037287        -1.086985         1.556725
 H         1.769316         0.239871        -1.837578
 H         1.659687         1.831426        -0.990684
 H         4.514109         0.378211        -2.201859
 H         5.348349        -0.366173        -0.778434
 H         3.442873        -1.345908         1.038321
 H         4.020904         1.036199         1.853779
 H         3.138949         2.402988         0.792157
