19
Iteration:  3993charge 0 multiplicity 1
 C         0.176913        -0.635095         0.466030
 C         1.544483        -0.124987         0.205371
 C         1.938607         0.992444        -0.608717
 C         3.357085         0.540043        -0.221417
 C         4.226036         0.035196        -1.365969
 O         3.273889        -1.099618        -1.562215
 C         2.814039        -0.863348        -0.160129
 C         3.333009         0.783021         1.295040
 O         2.058211         0.274735         1.561792
 H        -0.362673        -0.625052        -0.405476
 H         0.081957        -1.569754         0.980590
 H        -0.178462         0.158563         1.136630
 H         1.639862         0.743430        -1.760871
 H         1.493528         2.111887        -0.379638
 H         4.285550         0.634012        -2.258015
 H         5.224163        -0.325123        -1.093746
 H         3.414814        -1.547826         0.490378
 H         4.186142         0.253153         1.856296
 H         3.371410         1.808099         1.668519
