19
Iteration:  2578
 C         0.251001        -0.760845         0.531096
 C         1.528643        -0.061374         0.200651
 C         1.965566         0.783430        -0.972182
 C         3.403817         0.525581        -0.252395
 C         4.299937        -0.218993        -1.190884
 O         3.467115        -1.461966        -1.095292
 C         2.794128        -0.928123         0.116590
 C         3.094904         1.403790         0.874966
 O         1.913173         0.663002         1.387609
 H         0.462782        -1.449950         1.307998
 H        -0.604441        -0.153160         0.849412
 H        -0.016144        -1.368017        -0.332813
 H         1.871659         0.368635        -2.061603
 H         1.711424         1.911310        -0.951703
 H         4.638650        -0.022579        -2.217093
 H         5.203210        -0.555631        -0.670765
 H         3.005262        -1.655259         1.005587
 H         3.848173         1.454960         1.691279
 H         2.892533         2.506690         0.570642
