19
Iteration:  2504
 C         0.108842        -0.690671         0.554616
 C         1.517046        -0.176877         0.159544
 C         2.014762         0.703079        -0.992355
 C         3.357944         0.513691        -0.257811
 C         4.298243        -0.186944        -1.222129
 O         3.574456        -1.460243        -1.052268
 C         2.815362        -0.986635         0.128006
 C         3.154867         1.428486         0.934006
 O         1.911437         0.721115         1.352604
 H         0.145475        -1.808983         0.570165
 H        -0.371586        -0.375322         1.617717
 H        -0.715458        -0.343682        -0.179022
 H         2.023978         0.323180        -2.028256
 H         1.568919         1.627040        -0.902838
 H         4.147418         0.193515        -2.286417
 H         5.373145        -0.112911        -0.955694
 H         3.197423        -1.507732         1.025496
 H         4.022251         1.330101         1.636720
 H         2.790459         2.422380         0.613020
