19
Iteration:  4225charge 0 multiplicity 1
 C         0.171969        -0.648602         0.366181
 C         1.593650        -0.115597         0.242283
 C         2.035060         0.969701        -0.577017
 C         3.413828         0.590169        -0.209402
 C         4.194217        -0.008631        -1.473475
 O         3.160678        -1.062066        -1.515096
 C         2.832560        -0.867548        -0.171269
 C         3.302461         0.870639         1.309217
 O         2.042969         0.213921         1.640067
 H        -0.130403        -1.181513        -0.480420
 H         0.159207        -1.295046         1.200232
 H        -0.559764         0.124710         0.475107
 H         1.901009         0.876543        -1.608302
 H         1.630871         2.060607        -0.286142
 H         4.338752         0.493037        -2.399778
 H         5.165544        -0.434753        -1.159631
 H         3.302029        -1.691984         0.657456
 H         4.183440         0.414729         1.781377
 H         3.374599         1.895309         1.538262
