19
Iteration:  4078
 C         0.138267        -0.742851         0.409778
 C         1.504089        -0.123958         0.241011
 C         1.905484         1.090480        -0.643543
 C         3.459064         0.525246        -0.202518
 C         4.258079         0.076094        -1.406949
 O         3.183510        -1.097851        -1.480484
 C         2.852744        -0.829724        -0.170739
 C         3.415303         0.716803         1.308648
 O         2.082317         0.334330         1.559526
 H        -0.184679        -1.476954        -0.365908
 H         0.019559        -1.175002         1.469039
 H        -0.649957         0.048813         0.255688
 H         1.654997         1.033387        -1.814488
 H         1.480523         1.943781        -0.193712
 H         4.059742         0.805892        -2.293314
 H         5.247912        -0.382632        -1.388663
 H         3.282865        -1.667632         0.610013
 H         4.055171         0.000811         1.908060
 H         3.539827         1.717837         1.674571
