19
Iteration:  3857charge 0 multiplicity 1
 C         0.030130        -0.629538         0.530683
 C         1.466555        -0.174198         0.228415
 C         1.846004         1.086544        -0.668922
 C         3.365235         0.533280        -0.212468
 C         4.282028         0.063529        -1.446200
 O         3.376773        -1.119660        -1.578629
 C         2.826309        -0.890711        -0.223367
 C         3.450651         0.742103         1.341973
 O         2.057165         0.298353         1.613368
 H        -0.173688        -1.638902         0.216542
 H        -0.081643        -0.624255         1.573337
 H        -0.706156         0.063138         0.195269
 H         1.605507         0.880680        -1.868107
 H         1.639761         2.106932        -0.228197
 H         4.238871         0.795976        -2.291783
 H         5.273843        -0.106311        -1.163344
 H         3.242251        -1.697579         0.471055
 H         4.203854         0.063938         1.707489
 H         3.765962         1.696508         1.780358
