19
Iteration:   332charge 0 multiplicity 1
 C         0.167192        -0.808617         0.701696
 C         1.499219        -0.302646         0.101832
 C         2.116351        -0.507437        -1.280858
 C         3.313507         0.348923        -0.537462
 C         4.578016        -0.383638        -0.421861
 O         4.008435        -1.220132         0.649897
 C         2.925930        -0.323432         0.753890
 C         2.655163         1.679545        -0.618303
 O         1.467342         1.301862         0.203235
 H         0.445278        -1.444794         1.653747
 H        -0.459200         0.018784         1.042091
 H        -0.475211        -1.380824        -0.035596
 H         2.677762        -1.446481        -1.436840
 H         1.669044        -0.079430        -2.225861
 H         4.831404        -0.928221        -1.361098
 H         5.550471         0.151476        -0.141363
 H         2.858912         0.135914         1.777008
 H         3.274792         2.566383        -0.110132
 H         2.108649         1.866501        -1.617258
