19
Iteration:  1675charge 0 multiplicity 1
 C         0.248435        -0.830551         0.634033
 C         1.498395        -0.174638         0.096228
 C         2.004052         0.418412        -1.218516
 C         3.329001         0.542732        -0.502185
 C         4.472944        -0.406155        -0.983641
 O         3.617253        -1.596118        -0.539973
 C         2.890461        -0.686694         0.371558
 C         2.918001         1.668217         0.588822
 O         1.764397         0.970694         1.064361
 H         0.465949        -1.936917         0.803160
 H        -0.134462        -0.252579         1.512451
 H        -0.553603        -0.836423        -0.125201
 H         2.114569        -0.420107        -1.990578
 H         1.535719         1.243094        -1.660437
 H         4.556696        -0.484684        -2.079765
 H         5.410174        -0.320274        -0.394117
 H         3.139343        -0.771466         1.428544
 H         3.535724         1.935141         1.590550
 H         2.643828         2.654483         0.254103
