19
Iteration:  3223charge 0 multiplicity 1
 C         0.074526        -0.727709         0.484606
 C         1.510650        -0.134798         0.235232
 C         1.920810         0.866850        -0.790847
 C         3.367259         0.590525        -0.265817
 C         4.301874        -0.092416        -1.324221
 O         3.316512        -1.245799        -1.390661
 C         2.893630        -0.860460        -0.005617
 C         3.344524         1.074202         1.208080
 O         1.990390         0.469594         1.477355
 H        -0.063543        -0.797536         1.536171
 H        -0.719826        -0.065673         0.180613
 H        -0.050221        -1.679574         0.125408
 H         1.787203         0.433079        -1.935659
 H         1.678937         1.966189        -0.827704
 H         4.499247         0.396200        -2.345820
 H         5.345352        -0.319457        -0.891779
 H         3.291571        -1.560200         0.731931
 H         4.088231         0.572312         1.740732
 H         3.424070         2.055383         1.357666
