19
Iteration:  1380
 C         0.167053        -0.836908         0.525087
 C         1.437337        -0.130741         0.181147
 C         1.872484         0.146529        -1.219561
 C         3.317776         0.455572        -0.490902
 C         4.524395        -0.398348        -0.834630
 O         3.832286        -1.574306        -0.362250
 C         2.885597        -0.678636         0.494971
 C         3.040924         1.721758         0.350200
 O         1.640851         1.190085         0.911860
 H        -0.336095        -1.145087        -0.343722
 H         0.587441        -1.756371         0.861319
 H        -0.565632        -0.412724         1.257925
 H         1.991323        -0.700552        -1.833100
 H         1.326223         1.048145        -1.697846
 H         4.710465        -0.415290        -1.909937
 H         5.419951        -0.312842        -0.241446
 H         3.012318        -0.737264         1.609157
 H         3.727457         1.722027         1.168338
 H         2.767260         2.695538        -0.170814
