19
Iteration:   506charge 0 multiplicity 1
 C         0.220629        -0.731285         0.655444
 C         1.526818        -0.253383         0.133823
 C         2.112308        -0.481007        -1.217481
 C         3.363712         0.406108        -0.556124
 C         4.632103        -0.366149        -0.540423
 O         3.987709        -1.452991         0.456112
 C         2.978676        -0.312563         0.758747
 C         2.604923         1.717874        -0.344285
 O         1.359192         1.264747         0.220260
 H         0.044966        -1.767628         1.042664
 H        -0.016533        -0.094356         1.494509
 H        -0.529719        -0.427281        -0.110801
 H         2.281602        -1.514702        -1.644043
 H         1.545483         0.040633        -2.034385
 H         4.903511        -0.941183        -1.389810
 H         5.457841         0.152932        -0.049237
 H         3.157493         0.183993         1.726006
 H         3.083492         2.437820         0.261189
 H         2.409370         2.374951        -1.218783
