19
Iteration:  1808charge 0 multiplicity 1
 C         0.182783        -0.846378         0.554292
 C         1.491675        -0.128212         0.232894
 C         1.899968         0.340364        -1.206270
 C         3.286273         0.506909        -0.443347
 C         4.434094        -0.364726        -0.989936
 O         3.592012        -1.458050        -0.668970
 C         2.965685        -0.707784         0.371816
 C         3.130074         1.523451         0.656537
 O         1.725752         1.021788         1.045994
 H        -0.743414        -0.216082         0.382883
 H         0.062638        -1.805894         0.015745
 H         0.402360        -1.076395         1.621164
 H         2.135771        -0.371947        -1.946993
 H         1.240523         1.161043        -1.595666
 H         4.725908        -0.184634        -2.005881
 H         5.361890        -0.405348        -0.421555
 H         3.301079        -0.846822         1.383974
 H         3.872344         1.469732         1.537151
 H         3.020235         2.558933         0.446734
