19
Iteration:  3234
 C         0.077593        -0.648120         0.539830
 C         1.469622        -0.135929         0.273359
 C         1.928559         0.793679        -0.858318
 C         3.435236         0.520011        -0.220864
 C         4.294637        -0.101669        -1.336700
 O         3.359134        -1.149864        -1.436758
 C         2.940539        -0.899643        -0.019965
 C         3.323876         1.065514         1.160858
 O         1.932294         0.489352         1.525169
 H        -0.095778        -0.632605         1.577986
 H        -0.678159        -0.137785        -0.035207
 H         0.078826        -1.601608         0.172997
 H         1.787227         0.309323        -1.996427
 H         1.359512         1.755593        -0.681746
 H         4.416151         0.555470        -2.272292
 H         5.213206        -0.691818        -0.992334
 H         3.469578        -1.497119         0.730825
 H         3.980167         0.545770         1.772051
 H         3.319194         2.016994         1.406782
