19
Iteration:  3984charge 0 multiplicity 1
 C         0.193339        -0.618369         0.459182
 C         1.518906        -0.107118         0.277925
 C         1.915103         1.015247        -0.632645
 C         3.418579         0.571416        -0.195760
 C         4.184853         0.019985        -1.446796
 O         3.324542        -1.106178        -1.513840
 C         2.789387        -0.888210        -0.165893
 C         3.410109         0.794353         1.297634
 O         2.004149         0.258071         1.535212
 H        -0.446780        -0.655770        -0.456455
 H         0.348095        -1.654247         0.785674
 H        -0.447251        -0.105388         1.221086
 H         1.803225         0.860317        -1.703642
 H         1.493201         2.047915        -0.290591
 H         4.181432         0.687298        -2.277923
 H         5.259676        -0.227539        -1.127751
 H         3.003613        -1.662797         0.533702
 H         4.053552         0.109328         1.905198
 H         3.483769         1.895617         1.496763
