19
Iteration:  1793charge 0 multiplicity 1
 C         0.173723        -0.878915         0.596141
 C         1.446983        -0.181309         0.182213
 C         1.927976         0.460642        -1.140765
 C         3.357652         0.555435        -0.429032
 C         4.463100        -0.342954        -1.019571
 O         3.714614        -1.611669        -0.647061
 C         2.870296        -0.777818         0.326684
 C         3.019031         1.595125         0.606315
 O         1.758511         1.086972         1.078651
 H        -0.656078        -0.152994         0.851328
 H        -0.119876        -1.505352        -0.277316
 H         0.254779        -1.537490         1.473669
 H         1.711336        -0.324998        -1.960750
 H         1.538630         1.405044        -1.410182
 H         4.599407        -0.446998        -2.115070
 H         5.349539        -0.282471        -0.399519
 H         3.172478        -1.059858         1.354520
 H         3.716117         1.579908         1.457626
 H         2.917336         2.741514         0.220584
