19
Iteration:  1419charge 0 multiplicity 1
 C         0.220213        -0.666775         0.570869
 C         1.517793        -0.229332         0.084252
 C         1.995759         0.141817        -1.248514
 C         3.340577         0.561925        -0.394932
 C         4.496866        -0.420212        -0.916524
 O         3.773954        -1.579194        -0.391385
 C         2.951368        -0.687154         0.534924
 C         2.845167         1.703268         0.386190
 O         1.607534         1.037114         0.923216
 H         0.005226        -1.731908         0.212873
 H         0.173274        -0.540116         1.695886
 H        -0.558072         0.080518         0.291962
 H         2.089619        -0.583677        -2.125578
 H         1.387341         0.948589        -1.526420
 H         4.584514        -0.451446        -2.045404
 H         5.493492        -0.312643        -0.373817
 H         3.279564        -0.965010         1.515318
 H         3.494332         1.946431         1.310983
 H         2.690321         2.619301        -0.092310
