19
Iteration:  4445charge 0 multiplicity 1
 C         0.077109        -0.599450         0.479207
 C         1.523412        -0.201637         0.286697
 C         1.924118         0.961791        -0.687279
 C         3.350293         0.552458        -0.222445
 C         4.233851        -0.003580        -1.346736
 O         3.261546        -0.970111        -1.586341
 C         2.797198        -0.902549        -0.220811
 C         3.429335         0.845330         1.276767
 O         2.137444         0.234738         1.604889
 H        -0.214058        -1.379247        -0.322026
 H        -0.027247        -1.083654         1.466890
 H        -0.548061         0.316135         0.506643
 H         1.789669         0.765446        -1.610712
 H         1.577790         1.958417        -0.508234
 H         4.470704         0.557362        -2.250831
 H         5.141473        -0.483620        -0.897050
 H         3.106797        -1.721671         0.536139
 H         4.087428         0.284507         1.939238
 H         3.363699         1.899515         1.607402
