19
Iteration:  2121
 C         0.252351        -0.762715         0.516199
 C         1.553756        -0.200771         0.140941
 C         2.024205         0.585095        -1.119521
 C         3.296114         0.572242        -0.331918
 C         4.279052        -0.295822        -1.147754
 O         3.589495        -1.542145        -0.838108
 C         2.863885        -0.853628         0.263335
 C         3.092036         1.460163         0.870714
 O         1.764247         0.909590         1.205639
 H        -0.446740        -1.029102        -0.281506
 H         0.430203        -1.625448         1.090693
 H        -0.197283        -0.007721         1.111363
 H         2.047367        -0.000377        -1.996524
 H         1.464885         1.602589        -1.156890
 H         4.299965         0.003091        -2.233193
 H         5.259376        -0.271081        -0.750052
 H         3.394604        -1.181299         1.228070
 H         3.809635         1.210137         1.742097
 H         3.093601         2.541540         0.623399
