19
Iteration:  3602
 C         0.155995        -0.686608         0.445893
 C         1.517911        -0.125216         0.285341
 C         1.898268         0.969954        -0.672352
 C         3.408362         0.579547        -0.215567
 C         4.274699        -0.031636        -1.353521
 O         3.237806        -1.100242        -1.575312
 C         2.818087        -0.871231        -0.172176
 C         3.334983         0.929889         1.271108
 O         2.091668         0.285212         1.599050
 H        -0.276125        -0.300371         1.391223
 H        -0.426241        -0.326342        -0.282232
 H         0.196681        -1.733234         0.336484
 H         1.842050         0.588473        -1.753206
 H         1.470775         2.070008        -0.514658
 H         4.543566         0.547986        -2.250520
 H         5.112858        -0.583519        -0.869358
 H         3.165395        -1.684844         0.509015
 H         4.080067         0.368592         1.990044
 H         3.272878         2.092260         1.550360
