19
Iteration:  2717
 C         0.046369        -0.824217         0.477970
 C         1.437200        -0.124252         0.316312
 C         1.909279         0.706215        -0.887556
 C         3.385087         0.502378        -0.258551
 C         4.390750        -0.160714        -1.209825
 O         3.493760        -1.356427        -1.205568
 C         2.849749        -0.916404         0.088267
 C         3.269344         1.273647         0.992857
 O         1.936635         0.806584         1.351859
 H        -0.952393        -0.219998         0.361463
 H         0.090605        -1.562213        -0.307033
 H         0.130482        -1.456108         1.411170
 H         1.644331         0.143774        -1.764487
 H         1.598278         1.715847        -0.984498
 H         4.494239         0.173363        -2.223064
 H         5.374545        -0.346395        -0.800492
 H         3.216155        -1.446097         0.911960
 H         3.985345         1.222922         1.768996
 H         3.234591         2.275234         0.613031
