19
Iteration:  2291
 C         0.278020        -0.777435         0.462066
 C         1.537952        -0.083966         0.245590
 C         1.920790         0.556232        -1.065845
 C         3.325690         0.585215        -0.433197
 C         4.364456        -0.290722        -1.132926
 O         3.427570        -1.436115        -0.979916
 C         2.894935        -0.799400         0.206719
 C         3.154452         1.376026         0.931234
 O         1.824848         0.792063         1.344844
 H        -0.338584        -0.134833         1.143662
 H        -0.262829        -0.814044        -0.442417
 H         0.461561        -1.787390         0.850165
 H         1.812937        -0.014768        -1.990195
 H         1.575793         1.581573        -1.240095
 H         4.534162        -0.055234        -2.157305
 H         5.318506        -0.514018        -0.621321
 H         3.232921        -1.300148         1.200001
 H         3.972090         1.216802         1.559275
 H         3.088305         2.515412         0.859082
