19
Iteration:  2079charge 0 multiplicity 1
 C         0.083211        -0.784604         0.474375
 C         1.463039        -0.143049         0.287511
 C         1.851466         0.492665        -1.011788
 C         3.296565         0.520369        -0.405600
 C         4.430171        -0.280908        -0.999169
 O         3.646592        -1.505957        -0.937614
 C         2.920546        -0.819716         0.265880
 C         3.170779         1.466042         0.697234
 O         1.836717         0.935723         1.231901
 H        -0.663204        -0.285543        -0.110900
 H         0.111110        -1.789834         0.064803
 H        -0.215600        -0.800331         1.509708
 H         1.875603        -0.131853        -1.877526
 H         1.400922         1.513182        -1.340250
 H         4.765806        -0.107168        -2.070165
 H         5.364043        -0.303065        -0.383868
 H         3.285721        -1.110243         1.313351
 H         3.925413         1.337958         1.411740
 H         2.984396         2.570646         0.635589
