19
Iteration:  1180
 C         0.144013        -0.927566         0.597536
 C         1.455241        -0.129005         0.168639
 C         1.969982         0.049281        -1.281950
 C         3.318877         0.492477        -0.559670
 C         4.563658        -0.464694        -0.732080
 O         3.766227        -1.538099        -0.202495
 C         2.947523        -0.600296         0.603364
 C         2.944133         1.741442         0.242246
 O         1.580918         1.258479         0.720455
 H        -0.649905        -0.969212        -0.157061
 H         0.560215        -1.891557         0.933374
 H        -0.149087        -0.399965         1.480138
 H         2.245748        -0.909784        -1.769930
 H         1.469763         0.766288        -1.972172
 H         4.824417        -0.659739        -1.821841
 H         5.483778        -0.053681        -0.276282
 H         3.263458        -0.683593         1.699407
 H         3.696269         1.892261         1.092878
 H         2.729851         2.635358        -0.384847
