19
Iteration:  1777
 C         0.202020        -0.798104         0.575824
 C         1.544623        -0.118152         0.186028
 C         1.925214         0.533480        -1.177732
 C         3.267744         0.423399        -0.382742
 C         4.427065        -0.351744        -1.036148
 O         3.759173        -1.646177        -0.580577
 C         2.890102        -0.871590         0.307763
 C         2.973996         1.664393         0.544085
 O         1.708287         1.011817         1.123449
 H        -0.381512        -0.226233         1.288238
 H        -0.383452        -1.058943        -0.299975
 H         0.385714        -1.709112         1.160668
 H         2.098114         0.047617        -2.077648
 H         1.505797         1.627801        -1.287110
 H         4.531137        -0.104693        -2.110856
 H         5.469248        -0.268723        -0.545983
 H         3.262465        -1.106395         1.368383
 H         3.756020         1.912256         1.280699
 H         2.663662         2.430072        -0.097861
