19
Iteration:  4933charge 0 multiplicity 1
 C        -0.018397        -0.628337         0.570562
 C         1.456375        -0.122314         0.256002
 C         1.934522         1.038586        -0.637168
 C         3.376703         0.528679        -0.225312
 C         4.258510         0.032249        -1.367287
 O         3.397682        -1.142352        -1.584273
 C         2.806579        -0.900744        -0.220570
 C         3.437098         0.887739         1.226356
 O         2.067524         0.204535         1.556594
 H        -0.568328        -0.600142        -0.390046
 H        -0.107484        -1.625986         1.021855
 H        -0.322415         0.073353         1.407091
 H         1.768937         0.880925        -1.617312
 H         1.652951         2.059922        -0.421278
 H         4.406293         0.814793        -2.099407
 H         5.227385        -0.214086        -0.816189
 H         3.061467        -1.594089         0.446439
 H         4.190046         0.402510         1.820167
 H         3.388352         1.942941         1.406847
