19
Iteration:  3586charge 0 multiplicity 1
 C         0.100418        -0.619768         0.425848
 C         1.551392        -0.194707         0.285486
 C         1.931036         0.942435        -0.667314
 C         3.309720         0.463768        -0.229839
 C         4.255915         0.006850        -1.269945
 O         3.321810        -1.053747        -1.622400
 C         2.776594        -1.006108        -0.114086
 C         3.390678         1.000787         1.212806
 O         2.089851         0.327526         1.634639
 H        -0.184109        -0.676193         1.475254
 H        -0.511329         0.072515        -0.395444
 H        -0.111517        -1.751197         0.220733
 H         1.505897         0.939951        -1.629997
 H         1.678179         1.903015        -0.299490
 H         4.364509         0.610100        -2.185237
 H         5.245964        -0.354526        -0.995648
 H         3.278343        -1.810420         0.419394
 H         4.242468         0.724974         1.700295
 H         3.271777         2.014027         1.333587
