19
Iteration:  3973
 C         0.062828        -0.732980         0.447610
 C         1.504291        -0.079136         0.256047
 C         1.975200         1.113066        -0.647529
 C         3.403938         0.527105        -0.188872
 C         4.186195         0.084349        -1.438729
 O         3.351417        -1.157913        -1.481965
 C         2.761696        -0.936130        -0.198694
 C         3.483736         0.851504         1.274316
 O         2.016113         0.305612         1.603035
 H        -0.369590        -0.700165        -0.595362
 H         0.229925        -1.799948         0.652314
 H        -0.552645        -0.322291         1.296253
 H         1.801371         0.939318        -1.702016
 H         1.755353         2.189396        -0.291593
 H         3.999445         0.591094        -2.358141
 H         5.270504        -0.305641        -1.475381
 H         2.885880        -1.796190         0.393077
 H         4.243464         0.237966         1.856265
 H         3.476636         1.845437         1.794570
