19
Iteration:   452
 C         0.256242        -0.835400         0.671020
 C         1.499423        -0.261410         0.152313
 C         2.084990        -0.488968        -1.270383
 C         3.299974         0.387993        -0.610385
 C         4.608461        -0.456243        -0.443533
 O         3.946294        -1.328456         0.491930
 C         2.910254        -0.259982         0.751467
 C         2.646537         1.772077        -0.436183
 O         1.466770         1.290589         0.256766
 H        -0.384041        -1.030435        -0.261472
 H         0.386889        -1.742374         1.264095
 H        -0.320274        -0.040285         1.235006
 H         2.508097        -1.515677        -1.488720
 H         1.560091        -0.085353        -2.183326
 H         4.985158        -1.143137        -1.198669
 H         5.480299         0.117962        -0.020183
 H         3.134247         0.354982         1.645663
 H         3.292961         2.356839         0.208674
 H         2.232135         2.233811        -1.373504
