19
Iteration:  3798
 C         0.067790        -0.732178         0.390510
 C         1.524175        -0.139493         0.285037
 C         2.017966         1.022852        -0.457035
 C         3.461598         0.472663        -0.134685
 C         4.218062        -0.059508        -1.440582
 O         3.189063        -1.016808        -1.631091
 C         2.744290        -0.918742        -0.252280
 C         3.385546         0.982591         1.301198
 O         2.139143         0.302321         1.618637
 H         0.061923        -1.810090        -0.180879
 H        -0.099264        -0.930849         1.547197
 H        -0.682135        -0.167838        -0.320171
 H         1.821890         0.933706        -1.439614
 H         1.751932         2.003127        -0.199915
 H         4.341042         0.594319        -2.291939
 H         5.246966        -0.440196        -1.172950
 H         3.046730        -1.874863         0.177359
 H         4.107182         0.672033         2.011100
 H         3.273244         2.090436         1.318881
