19
Iteration:  4358
 C         0.070913        -0.642461         0.398541
 C         1.585055        -0.238861         0.360026
 C         1.943080         0.973688        -0.602991
 C         3.408454         0.580484        -0.232770
 C         4.252502        -0.008869        -1.369881
 O         3.218993        -1.073885        -1.622818
 C         2.841983        -0.935177        -0.192946
 C         3.355586         0.928119         1.256620
 O         2.078761         0.305405         1.659302
 H        -0.388544        -0.225627        -0.546598
 H        -0.195670        -1.669435         0.414848
 H        -0.482389        -0.180560         1.220832
 H         1.814503         0.648500        -1.768108
 H         1.723995         2.022097        -0.206183
 H         4.425795         0.723966        -2.152832
 H         5.231472        -0.436473        -0.973878
 H         3.183908        -1.750920         0.292290
 H         4.177494         0.456322         1.780718
 H         3.407770         1.996519         1.511608
