19
Iteration:  3551
 C         0.081553        -0.614656         0.513493
 C         1.481178        -0.160200         0.268921
 C         1.928558         0.950219        -0.748954
 C         3.405158         0.565547        -0.214852
 C         4.240409         0.027135        -1.413899
 O         3.393712        -1.150315        -1.558112
 C         2.837094        -0.948002        -0.120246
 C         3.361457         0.910442         1.316564
 O         2.014344         0.326506         1.583158
 H         0.001992        -1.049343         1.518473
 H        -0.688335         0.310857         0.662767
 H        -0.182914        -1.207402        -0.373105
 H         1.730735         0.587135        -1.802083
 H         1.709997         1.907345        -0.524481
 H         4.079831         0.684642        -2.326006
 H         5.295082        -0.231853        -1.280318
 H         3.324154        -1.704423         0.512555
 H         4.078224         0.417057         1.946058
 H         3.254448         1.872066         1.605950
