19
Iteration:  4891charge 0 multiplicity 1
 C         0.085039        -0.629813         0.420220
 C         1.523494        -0.202247         0.281039
 C         1.959183         0.965827        -0.661172
 C         3.410718         0.502297        -0.126817
 C         4.196575         0.060508        -1.353292
 O         3.236169        -1.071969        -1.623923
 C         2.796290        -0.933265        -0.198455
 C         3.473710         0.969620         1.334283
 O         2.079574         0.258214         1.602508
 H        -0.258211        -1.122894        -0.594017
 H        -0.119553        -1.329736         1.235661
 H        -0.550001         0.350496         0.613061
 H         1.952648         0.681739        -1.607372
 H         1.504431         1.929351        -0.554996
 H         4.247327         0.615595        -2.272868
 H         5.101175        -0.466017        -1.293864
 H         3.285052        -1.752999         0.420842
 H         4.250308         0.465420         1.990091
 H         3.349324         2.026436         1.611346
