19
Iteration:  1336charge 0 multiplicity 1
 C         0.189955        -0.817788         0.552689
 C         1.478329        -0.189374         0.164201
 C         2.039975         0.199108        -1.250238
 C         3.365510         0.501637        -0.403872
 C         4.538400        -0.500035        -0.905035
 O         3.695602        -1.533680        -0.293942
 C         2.957206        -0.662356         0.533870
 C         2.926238         1.819097         0.356584
 O         1.569472         1.094575         0.824227
 H        -0.639501        -0.237033         0.829991
 H        -0.036489        -1.585887        -0.145619
 H         0.425293        -1.259444         1.527816
 H         2.082655        -0.670291        -1.905054
 H         1.455104         1.049336        -1.692809
 H         4.629573        -0.822644        -1.939804
 H         5.518401        -0.367161        -0.502303
 H         3.386362        -0.738428         1.568600
 H         3.552319         2.050572         1.138260
 H         2.590062         2.590971        -0.371569
