19
Iteration:  4116
 C         0.075645        -0.701743         0.348633
 C         1.514874        -0.087150         0.351229
 C         1.959456         1.002168        -0.574533
 C         3.432535         0.464866        -0.160451
 C         4.243345         0.032468        -1.376016
 O         3.219398        -1.080209        -1.588028
 C         2.785100        -0.935748        -0.216015
 C         3.396301         0.911477         1.255799
 O         2.123219         0.294954         1.624937
 H        -0.099712        -0.873762        -0.703803
 H         0.103419        -1.651773         0.796255
 H        -0.640290        -0.080770         0.820490
 H         1.672927         0.813054        -1.572232
 H         1.652517         2.141190        -0.213179
 H         4.277614         0.679359        -2.190349
 H         5.230535        -0.383146        -1.158864
 H         3.084832        -1.765172         0.504690
 H         4.230367         0.588845         1.860244
 H         3.273578         2.032334         1.279125
