19
Iteration:  2952charge 0 multiplicity 1
 C         0.076819        -0.695504         0.533393
 C         1.457080        -0.194528         0.216698
 C         1.917708         0.792471        -0.786036
 C         3.426317         0.473995        -0.250318
 C         4.348264        -0.098820        -1.319685
 O         3.526241        -1.325090        -1.266657
 C         2.802336        -0.925888         0.029546
 C         3.227445         1.210866         1.017094
 O         1.959106         0.624260         1.431741
 H        -0.336552        -0.115534         1.411955
 H        -0.777044        -0.533621        -0.270866
 H         0.271748        -1.837989         0.677162
 H         1.726641         0.626064        -1.876289
 H         1.575868         1.971224        -0.494179
 H         4.315971         0.439904        -2.303079
 H         5.386241        -0.325761        -0.937149
 H         3.045613        -1.753121         0.704561
 H         3.937133         0.862403         1.755922
 H         3.177318         2.301041         0.959483
