19
Iteration:  3823charge 0 multiplicity 1
 C         0.151482        -0.633642         0.381775
 C         1.563505        -0.130628         0.286790
 C         1.948399         1.035523        -0.638824
 C         3.330167         0.491999        -0.196060
 C         4.191389         0.063596        -1.363583
 O         3.192884        -1.062520        -1.590383
 C         2.814622        -0.924832        -0.144006
 C         3.440495         0.868756         1.263715
 O         2.104833         0.209848         1.661025
 H         0.037805        -1.684645        -0.056453
 H        -0.066735        -0.641060         1.409520
 H        -0.504020        -0.001536        -0.227907
 H         1.584399         0.857093        -1.778482
 H         1.774631         2.087628        -0.394368
 H         4.266618         0.780492        -2.205846
 H         5.156773        -0.297418        -1.080314
 H         3.225110        -1.795105         0.439939
 H         4.228309         0.323045         1.670902
 H         3.404724         1.935678         1.572754
