19
Iteration:  1607charge 0 multiplicity 1
 C         0.201209        -0.757293         0.517426
 C         1.493286        -0.173933         0.195032
 C         1.973878         0.316208        -1.193187
 C         3.302760         0.498855        -0.362584
 C         4.437127        -0.367072        -1.040253
 O         3.762673        -1.599043        -0.527378
 C         2.897383        -0.718137         0.487649
 C         2.936221         1.675466         0.467825
 O         1.692102         1.012547         1.033115
 H        -0.426164        -1.017398        -0.325159
 H         0.473119        -1.650498         1.136691
 H        -0.365842        -0.114724         1.278280
 H         1.981683        -0.415196        -1.921178
 H         1.556585         1.260849        -1.599105
 H         4.525801        -0.461488        -2.151135
 H         5.384923        -0.171880        -0.558317
 H         3.191190        -0.905283         1.480443
 H         3.683155         1.739447         1.392390
 H         2.971847         2.610479        -0.118265
