19
Iteration:    75
 C         0.176245        -0.723324         0.752299
 C         1.546571        -0.304425         0.155076
 C         2.290895        -0.707680        -1.186888
 C         3.388931         0.424126        -0.561559
 C         4.601108        -0.470630        -0.283316
 O         3.957796        -1.108937         0.723937
 C         2.954239        -0.101715         0.813994
 C         2.516387         1.702412        -0.741452
 O         1.344103         1.119856        -0.084323
 H        -0.528374        -1.048462        -0.083174
 H         0.159991        -1.639222         1.383657
 H        -0.191458         0.146153         1.359340
 H         2.664729        -1.718387        -1.310495
 H         1.819099        -0.360853        -2.149548
 H         4.886924        -1.225765        -1.130998
 H         5.458634         0.070985         0.125606
 H         3.179537         0.537934         1.647907
 H         2.807110         2.505714        -0.082445
 H         2.376135         1.932160        -1.795618
