19
Iteration:  4398
 C         0.162818        -0.788360         0.461962
 C         1.476244        -0.096150         0.227989
 C         2.026431         1.113682        -0.640141
 C         3.393918         0.545134        -0.171431
 C         4.219830         0.028527        -1.378585
 O         3.263616        -1.118384        -1.512053
 C         2.714976        -0.881229        -0.212297
 C         3.429016         0.822296         1.279858
 O         2.060646         0.348666         1.563077
 H        -0.327336        -0.778352        -0.541974
 H         0.284205        -1.878179         0.721495
 H        -0.481217        -0.290072         1.331186
 H         1.860975         1.122737        -1.596072
 H         1.730017         2.119161        -0.330525
 H         4.041548         0.599825        -2.284075
 H         5.234340        -0.388938        -1.369716
 H         2.877495        -1.879076         0.626062
 H         4.194823         0.086507         1.758289
 H         3.471910         1.854002         1.614012
