19
Iteration:  3960charge 0 multiplicity 1
 C         0.059686        -0.812712         0.359737
 C         1.419227        -0.092835         0.247544
 C         2.059707         1.101138        -0.569345
 C         3.367567         0.489324        -0.197518
 C         4.161177         0.055574        -1.442801
 O         3.352611        -1.189461        -1.527620
 C         2.720068        -0.885781        -0.167832
 C         3.431064         0.843124         1.289771
 O         2.126301         0.371286         1.632645
 H        -0.565954        -0.692072        -0.429032
 H         0.118036        -1.857843         0.625357
 H        -0.519434        -0.258293         1.096619
 H         1.784179         1.025116        -1.770174
 H         1.866726         2.286289        -0.216584
 H         4.006523         0.815730        -2.178784
 H         5.241968        -0.029285        -1.257898
 H         3.101921        -1.553320         0.626404
 H         4.283099         0.229721         1.802020
 H         3.554552         1.919693         1.343163
