19
Iteration:  3633
 C         0.176197        -0.795141         0.484359
 C         1.462956        -0.082920         0.187425
 C         1.990432         1.105600        -0.697211
 C         3.386035         0.532866        -0.228990
 C         4.217534         0.035048        -1.383163
 O         3.274085        -1.136039        -1.513576
 C         2.772636        -0.900518        -0.100094
 C         3.397618         0.848338         1.251627
 O         2.025132         0.346315         1.575652
 H        -0.542092        -0.156760         1.105095
 H        -0.163207        -1.122365        -0.470382
 H         0.354678        -1.624889         1.220918
 H         1.888940         1.229911        -1.744156
 H         1.781572         2.187591        -0.313721
 H         4.411239         0.594075        -2.252085
 H         5.152719        -0.465548        -1.117727
 H         3.095113        -1.777508         0.466993
 H         3.974528         0.169384         1.794987
 H         3.567059         1.858737         1.699656
