19
Iteration:  4994
 C         0.133934        -0.750884         0.426526
 C         1.531872        -0.159663         0.232500
 C         2.012032         1.048617        -0.598007
 C         3.471342         0.499167        -0.226368
 C         4.235538        -0.060736        -1.471083
 O         3.161955        -1.045196        -1.568975
 C         2.835889        -0.879757        -0.173791
 C         3.353081         0.927435         1.366063
 O         2.050366         0.360768         1.653048
 H        -0.251750        -0.958074        -0.569710
 H         0.174167        -1.734037         1.020150
 H        -0.595433        -0.052336         0.735846
 H         1.817257         0.922615        -1.777727
 H         1.700447         2.050814        -0.200754
 H         4.275677         0.519631        -2.419938
 H         5.110078        -0.626976        -1.318904
 H         3.131936        -1.907663         0.411989
 H         4.073849         0.368726         2.067643
 H         3.434569         2.057676         1.592693
