19
Iteration:  3876
 C         0.109775        -0.643998         0.589613
 C         1.477441        -0.094989         0.275931
 C         1.993700         1.042138        -0.572181
 C         3.340100         0.472476        -0.191676
 C         4.218960         0.096956        -1.356528
 O         3.416102        -1.111398        -1.622262
 C         2.724420        -0.962843        -0.272693
 C         3.373307         0.786798         1.209580
 O         2.044242         0.304016         1.545018
 H         0.116920        -1.655019        -0.086182
 H        -0.088922        -0.784758         1.688751
 H        -0.630150         0.206551         0.352471
 H         1.836198         0.971233        -1.524375
 H         1.752954         1.938691        -0.173952
 H         4.251258         0.862308        -2.151870
 H         5.241738        -0.182674        -0.989145
 H         2.983916        -1.838069         0.334349
 H         4.141381         0.313830         1.779827
 H         3.332173         1.897742         1.368169
