19
Iteration:   439charge 0 multiplicity 1
 C         0.322575        -0.779408         0.655575
 C         1.594508        -0.187130         0.112346
 C         2.130194        -0.399987        -1.247881
 C         3.329249         0.381965        -0.738716
 C         4.572903        -0.502050        -0.439959
 O         3.911417        -1.301611         0.596324
 C         2.952554        -0.332795         0.735783
 C         2.609502         1.730872        -0.451727
 O         1.383485         1.229022         0.265276
 H        -0.568459        -0.751745        -0.013894
 H         0.491341        -1.801139         0.872189
 H         0.116310        -0.272677         1.602431
 H         2.259728        -1.483188        -1.382459
 H         1.475040         0.002994        -2.032772
 H         4.887639        -0.998895        -1.302321
 H         5.358652         0.065693         0.046102
 H         2.925150        -0.040439         1.759999
 H         2.967568         2.466989         0.115634
 H         2.388206         2.233582        -1.378632
