19
Iteration:  4662
 C         0.120051        -0.691210         0.461216
 C         1.552414        -0.085704         0.292576
 C         1.997855         1.077221        -0.571799
 C         3.405345         0.495606        -0.244039
 C         4.235146         0.017196        -1.364949
 O         3.217941        -1.047222        -1.556218
 C         2.775991        -0.935179        -0.208512
 C         3.415698         0.895549         1.206889
 O         2.030084         0.199626         1.616897
 H        -0.048548        -1.397172        -0.308293
 H        -0.040569        -1.071958         1.391572
 H        -0.531867         0.086717         0.290403
 H         1.978493         0.788139        -1.624903
 H         1.639589         2.149250        -0.253680
 H         4.321513         0.630192        -2.266262
 H         5.305897        -0.366645        -1.110666
 H         3.088141        -1.737329         0.347135
 H         4.222115         0.444801         1.838487
 H         3.217572         1.925330         1.423646
