19
Iteration:   114
 C         0.230134        -0.878624         0.782229
 C         1.402700        -0.136844         0.113198
 C         2.186526        -0.721325        -1.146026
 C         3.264248         0.241106        -0.564083
 C         4.585637        -0.347891        -0.270941
 O         4.029204        -1.180429         0.665539
 C         2.931068        -0.148615         0.821423
 C         2.691265         1.640539        -0.679711
 O         1.361326         1.333210        -0.147538
 H         0.408161        -1.957008         0.563658
 H         0.218085        -0.696526         1.851708
 H        -0.704111        -0.622084         0.307982
 H         2.444017        -1.795174        -1.078650
 H         1.852967        -0.404068        -2.148152
 H         5.069700        -0.844283        -1.075686
 H         5.262275         0.403441         0.206481
 H         3.070095         0.534418         1.740505
 H         3.214208         2.420565         0.035491
 H         2.568292         1.939872        -1.794854
