19
Iteration:  4336charge 0 multiplicity 1
 C         0.076872        -0.588286         0.475672
 C         1.473500        -0.168641         0.245707
 C         1.896361         1.000252        -0.578790
 C         3.347514         0.428307        -0.166251
 C         4.272690         0.021639        -1.341815
 O         3.342120        -1.027563        -1.601977
 C         2.786023        -0.972207        -0.202222
 C         3.402025         0.932528         1.217689
 O         2.122470         0.241043         1.580224
 H        -0.569368        -0.516005        -0.439247
 H         0.130039        -1.604459         0.737274
 H        -0.456458        -0.086849         1.278350
 H         1.751651         0.774364        -1.794804
 H         1.695067         2.033196        -0.091404
 H         4.284443         0.705657        -2.191769
 H         5.319812        -0.384167        -1.131583
 H         3.037695        -1.667863         0.498442
 H         4.129762         0.631283         1.968718
 H         3.341505         2.025273         1.265235
