19
Iteration:  2402charge 0 multiplicity 1
 C         0.189397        -0.690768         0.540924
 C         1.522427        -0.112886         0.217475
 C         1.964894         0.765328        -0.954074
 C         3.293271         0.505553        -0.330826
 C         4.358767        -0.264630        -1.201521
 O         3.578549        -1.610042        -1.056806
 C         2.897190        -0.914655         0.121872
 C         3.090671         1.458345         0.885865
 O         1.829385         0.748687         1.367036
 H        -0.534148        -0.755257        -0.334704
 H         0.451302        -1.728022         0.728605
 H        -0.367895        -0.383938         1.412726
 H         1.970359         0.444638        -1.955829
 H         1.754133         1.869511        -0.914050
 H         4.337209         0.081779        -2.205787
 H         5.369789        -0.281185        -0.838242
 H         3.225691        -1.384580         1.132810
 H         3.629081         1.626785         1.746866
 H         2.993526         2.504032         0.469333
