19
Iteration:  2582
 C         0.245065        -0.765543         0.534394
 C         1.516646        -0.054886         0.194220
 C         1.991511         0.791994        -0.977568
 C         3.419061         0.541917        -0.266340
 C         4.299176        -0.240945        -1.207020
 O         3.448285        -1.463567        -1.108141
 C         2.821277        -0.922644         0.122705
 C         3.081544         1.418784         0.897000
 O         1.905525         0.646830         1.390154
 H         0.407055        -1.455439         1.435984
 H        -0.653961        -0.031518         0.796039
 H        -0.000907        -1.505557        -0.311064
 H         1.909471         0.325743        -1.916955
 H         1.794133         1.806165        -1.045305
 H         4.598919        -0.077353        -2.261849
 H         5.219472        -0.413866        -0.621336
 H         3.019266        -1.595700         1.003266
 H         3.844661         1.487949         1.737910
 H         2.862942         2.478286         0.662339
