19
Iteration:  3525
 C         0.172293        -0.703705         0.487035
 C         1.483150        -0.129003         0.204729
 C         1.919260         1.029974        -0.712156
 C         3.368861         0.573217        -0.230672
 C         4.267764         0.065542        -1.348272
 O         3.289162        -1.212105        -1.423940
 C         2.773010        -0.885847        -0.126084
 C         3.388602         0.878727         1.251939
 O         2.050620         0.352157         1.479207
 H         0.294979        -1.728760         0.927669
 H        -0.309449        -0.201872         1.189933
 H        -0.380634        -0.741017        -0.430349
 H         1.695127         0.654661        -1.709693
 H         1.580323         2.123248        -0.405728
 H         4.290888         0.509526        -2.374765
 H         5.318871        -0.296328        -1.067214
 H         3.181002        -1.570528         0.658874
 H         4.175831         0.257478         1.905037
 H         3.392762         1.980527         1.654173
