19
Iteration:   158charge 0 multiplicity 1
 C         0.191858        -0.755447         0.675626
 C         1.545683        -0.249048         0.136718
 C         2.205797        -0.585056        -1.254165
 C         3.296838         0.314679        -0.594575
 C         4.610725        -0.443203        -0.367275
 O         4.032766        -1.210879         0.763324
 C         2.918357        -0.088073         0.870319
 C         2.553965         1.617293        -0.693892
 O         1.378593         1.183449         0.008728
 H         0.411897        -0.976015         1.761363
 H        -0.468052         0.089948         0.650731
 H        -0.174732        -1.679976         0.259779
 H         2.471402        -1.641548        -1.358916
 H         1.693876        -0.133838        -2.142294
 H         4.988301        -1.086487        -1.148023
 H         5.433256         0.245153        -0.061210
 H         3.249283         0.699038         1.651791
 H         2.968042         2.443419         0.003114
 H         2.122691         1.940111        -1.664279
