19
Iteration:  2045charge 0 multiplicity 1
 C         0.158259        -0.696020         0.604933
 C         1.515227        -0.167928         0.128813
 C         1.975484         0.498419        -1.155370
 C         3.371805         0.608239        -0.322558
 C         4.423276        -0.372055        -1.124407
 O         3.600558        -1.509050        -0.826849
 C         2.910469        -0.793188         0.302355
 C         2.974181         1.588977         0.790105
 O         1.823159         0.751907         1.186888
 H        -0.420756         0.157102         0.977854
 H        -0.324180        -1.163467        -0.193432
 H         0.202796        -1.418241         1.380751
 H         2.129772        -0.227002        -1.943721
 H         1.565902         1.551757        -1.457885
 H         4.353222        -0.151821        -2.242001
 H         5.448029        -0.424305        -0.740865
 H         3.119395        -1.234360         1.366975
 H         3.735288         1.601719         1.528745
 H         2.625054         2.599589         0.440137
