19
Iteration:  4471charge 0 multiplicity 1
 C         0.069045        -0.518379         0.446350
 C         1.533341        -0.199617         0.327967
 C         1.972631         0.948304        -0.640409
 C         3.357932         0.464234        -0.202095
 C         4.271785         0.104237        -1.349894
 O         3.223997        -1.057385        -1.615661
 C         2.805710        -0.958416        -0.236009
 C         3.386300         0.918146         1.249406
 O         2.143556         0.171525         1.645323
 H        -0.055286        -1.352794        -0.181682
 H        -0.176711        -0.839614         1.473348
 H        -0.545970         0.307515         0.243712
 H         1.778768         0.718234        -1.812846
 H         1.581792         1.965124        -0.454508
 H         4.219371         0.897439        -2.166807
 H         5.306756        -0.337115        -1.167712
 H         3.129926        -1.631995         0.455359
 H         4.099998         0.534098         1.961344
 H         3.176585         1.976215         1.584371
