19
Iteration:  2278charge 0 multiplicity 1
 C         0.138057        -0.849187         0.396600
 C         1.522483        -0.158221         0.316606
 C         1.825383         0.626563        -0.987478
 C         3.357836         0.528621        -0.364049
 C         4.435382        -0.303062        -1.119739
 O         3.484655        -1.426169        -1.044403
 C         2.890470        -0.821239         0.213286
 C         3.248953         1.389415         0.838577
 O         1.850227         0.949121         1.356702
 H        -0.422962        -0.504140         1.193608
 H        -0.390873        -0.748758        -0.538550
 H         0.223398        -1.902641         0.605246
 H         1.643617        -0.226541        -1.765196
 H         1.280980         1.559235        -1.213111
 H         4.690263        -0.121390        -2.145678
 H         5.302632        -0.365356        -0.497313
 H         3.449096        -1.322627         1.104166
 H         3.904717         1.034454         1.542232
 H         3.092948         2.464054         0.755639
