19
Iteration:  4190charge 0 multiplicity 1
 C         0.003599        -0.667387         0.499604
 C         1.386333        -0.165223         0.218426
 C         1.939026         1.016813        -0.586369
 C         3.350136         0.529912        -0.222875
 C         4.258583         0.088786        -1.339832
 O         3.418380        -1.131778        -1.565655
 C         2.727096        -0.937160        -0.274459
 C         3.465726         0.789196         1.238176
 O         2.120431         0.404406         1.606306
 H        -0.427797        -0.789139        -0.470065
 H         0.271386        -1.659916         0.886814
 H        -0.580056        -0.077961         1.275005
 H         1.806225         0.809211        -1.625534
 H         1.663426         2.046852        -0.203597
 H         4.312825         0.758265        -2.226850
 H         5.255252        -0.217142        -0.954092
 H         2.959988        -1.839337         0.500139
 H         4.149550         0.114772         1.844733
 H         3.558580         1.809927         1.480072
