19
Iteration:  1703charge 0 multiplicity 1
 C         0.130714        -0.792674         0.630358
 C         1.468770        -0.187805         0.209924
 C         1.916343         0.417424        -1.153085
 C         3.331460         0.438237        -0.406931
 C         4.500578        -0.287829        -0.993091
 O         3.749689        -1.569572        -0.577178
 C         2.905436        -0.853497         0.343089
 C         3.041183         1.625581         0.494600
 O         1.716780         1.063316         1.052457
 H         0.269980        -1.686907         1.163224
 H        -0.556872        -0.038229         1.015132
 H        -0.275139        -1.171902        -0.347983
 H         1.908137        -0.256173        -1.963883
 H         1.442438         1.435847        -1.432588
 H         4.518520        -0.277426        -2.088004
 H         5.474289        -0.207758        -0.476759
 H         3.084516        -1.139910         1.426046
 H         3.533922         1.768969         1.400443
 H         2.763841         2.540380        -0.228549
