19
Iteration:  2342charge 0 multiplicity 1
 C         0.125645        -0.682059         0.533982
 C         1.478101        -0.110265         0.286553
 C         1.863233         0.682879        -0.937776
 C         3.319041         0.462889        -0.366670
 C         4.372958        -0.211644        -1.185916
 O         3.651154        -1.500093        -1.047056
 C         2.898160        -0.933802         0.154849
 C         3.149780         1.321093         0.910078
 O         1.826489         0.862767         1.285963
 H        -0.608326        -0.108791         0.057684
 H         0.155804        -1.685826         0.032328
 H        -0.042945        -0.776667         1.618733
 H         1.832286         0.029337        -1.919728
 H         1.481534         1.689343        -1.182022
 H         4.437915         0.079564        -2.273433
 H         5.339738        -0.182489        -0.669845
 H         3.315718        -1.410320         1.048800
 H         3.944067         1.041924         1.693992
 H         3.173928         2.349699         0.592438
