19
Iteration:  2040
 C         0.094394        -0.721087         0.620132
 C         1.478425        -0.177146         0.118957
 C         2.023206         0.553091        -1.088220
 C         3.396723         0.572112        -0.309925
 C         4.403908        -0.368807        -1.159984
 O         3.638964        -1.507123        -0.807204
 C         2.918054        -0.780461         0.290968
 C         2.963135         1.576829         0.755150
 O         1.806877         0.790301         1.179866
 H        -0.427381         0.111177         1.129068
 H        -0.500543        -1.196484        -0.246286
 H         0.259607        -1.632249         1.296453
 H         2.007734        -0.269728        -1.886103
 H         1.614985         1.429764        -1.484282
 H         4.444718        -0.121253        -2.199804
 H         5.458714        -0.462908        -0.839857
 H         3.180156        -1.290155         1.180422
 H         3.788045         1.655980         1.620696
 H         2.863322         2.568757         0.307665
