19
Iteration:   829charge 0 multiplicity 1
 C         0.158360        -0.813728         0.612181
 C         1.490580        -0.156251         0.164045
 C         2.076296        -0.284204        -1.270637
 C         3.300645         0.404416        -0.560194
 C         4.515536        -0.415164        -0.624107
 O         3.898066        -1.505807         0.091472
 C         2.974850        -0.418692         0.692022
 C         2.841116         1.751614        -0.021160
 O         1.487187         1.283169         0.483007
 H        -0.072552        -1.645751        -0.081808
 H         0.163633        -1.250391         1.584599
 H        -0.707224        -0.079417         0.559124
 H         2.185182        -1.378274        -1.504836
 H         1.594367         0.291106        -1.965812
 H         4.759618        -0.610730        -1.679941
 H         5.392974        -0.132144        -0.085617
 H         3.297068         0.042173         1.657061
 H         3.514967         2.068803         0.778862
 H         2.575279         2.632420        -0.787749
