19
Iteration:  4248charge 0 multiplicity 1
 C         0.103113        -0.735936         0.324549
 C         1.603323        -0.134255         0.325720
 C         1.964498         1.037366        -0.623548
 C         3.466193         0.511107        -0.159734
 C         4.192487        -0.064984        -1.391802
 O         3.148130        -1.015354        -1.622094
 C         2.781039        -0.907419        -0.154663
 C         3.398126         0.941820         1.348747
 O         2.109000         0.254573         1.638345
 H         0.020998        -1.454666        -0.469530
 H        -0.137854        -1.195825         1.203739
 H        -0.564719         0.006331         0.051798
 H         1.732085         0.942367        -1.743051
 H         1.745008         2.196717        -0.364283
 H         4.239745         0.732156        -2.074529
 H         5.193180        -0.504928        -1.340966
 H         3.214661        -1.914693         0.568094
 H         4.150010         0.727254         2.084291
 H         3.339887         2.037386         1.350685
