19
Iteration:   485
 C         0.180057        -0.769900         0.668717
 C         1.452721        -0.165532         0.215847
 C         2.078452        -0.451486        -1.120913
 C         3.251808         0.362010        -0.537050
 C         4.630716        -0.370854        -0.498502
 O         4.060837        -1.348664         0.369092
 C         2.929381        -0.434293         0.824956
 C         2.729241         1.721977        -0.391795
 O         1.380464         1.297709         0.102706
 H         0.130203        -1.788385         0.138191
 H        -0.027734        -1.047346         1.724840
 H        -0.694686        -0.148499         0.303786
 H         2.474079        -1.516893        -1.248915
 H         1.602341        -0.143992        -2.098944
 H         4.982223        -0.960833        -1.361138
 H         5.434973         0.267068        -0.056845
 H         3.263821        -0.147105         1.843240
 H         3.326950         2.418769         0.143782
 H         2.572729         2.377875        -1.299352
