19
Iteration:  3130charge 0 multiplicity 1
 C         0.115929        -0.637958         0.579076
 C         1.489394        -0.204992         0.273939
 C         1.954561         0.808679        -0.827848
 C         3.368860         0.476785        -0.227847
 C         4.307848        -0.068059        -1.232423
 O         3.415744        -1.249730        -1.400393
 C         2.851349        -0.927664        -0.077272
 C         3.273260         1.131012         1.080589
 O         1.966599         0.560120         1.480081
 H        -0.020911        -1.749261         0.261920
 H        -0.165874        -0.544019         1.645690
 H        -0.560501        -0.148213        -0.262072
 H         1.858086         0.474608        -1.761771
 H         1.682840         1.856471        -0.817275
 H         4.326449         0.456474        -2.182574
 H         5.362758        -0.307006        -0.975675
 H         3.072559        -1.747908         0.641717
 H         3.992158         0.723386         1.847207
 H         3.156438         2.260732         1.066302
