19
Iteration:  1490charge 0 multiplicity 1
 C         0.278530        -0.793349         0.523400
 C         1.565102        -0.178676         0.142307
 C         1.950498         0.314680        -1.254825
 C         3.318361         0.487485        -0.496240
 C         4.413330        -0.394037        -0.901303
 O         3.718287        -1.625380        -0.398055
 C         2.928389        -0.671542         0.458308
 C         2.936350         1.660289         0.460086
 O         1.664445         1.084933         0.991557
 H         0.347585        -0.781637         1.591834
 H        -0.644525        -0.345691         0.172897
 H         0.195113        -1.826358         0.176823
 H         1.867625        -0.493375        -1.997358
 H         1.387790         1.207384        -1.678307
 H         4.542022        -0.675673        -1.941320
 H         5.327550        -0.185910        -0.300699
 H         3.106531        -0.742590         1.569039
 H         3.589478         1.850660         1.311095
 H         2.628809         2.723341        -0.012140
