19
Iteration:  1092
 C         0.228653        -0.775877         0.530544
 C         1.453636        -0.141104         0.227397
 C         1.977898        -0.079500        -1.205172
 C         3.275164         0.390124        -0.485805
 C         4.474672        -0.381672        -0.787496
 O         3.928786        -1.502674        -0.114011
 C         2.852997        -0.592795         0.627680
 C         2.876966         1.691785         0.141220
 O         1.625756         1.240118         0.652712
 H        -0.101647        -0.804282         1.589757
 H        -0.645041        -0.296424         0.029691
 H         0.312724        -1.790498         0.220201
 H         2.017676        -0.999155        -1.681981
 H         1.688696         0.795051        -1.909412
 H         4.692357        -0.729675        -1.893211
 H         5.365044         0.057456        -0.193395
 H         3.175327        -0.852106         1.696573
 H         3.506042         2.088973         0.998001
 H         2.595452         2.590048        -0.484318
