19
Iteration:  4692
 C         0.133280        -0.741616         0.409734
 C         1.582154        -0.139689         0.212840
 C         1.964875         1.024705        -0.646151
 C         3.413352         0.500679        -0.191491
 C         4.233929        -0.036367        -1.392454
 O         3.112925        -0.989029        -1.636733
 C         2.813329        -0.983892        -0.215469
 C         3.410830         0.914570         1.394599
 O         2.066477         0.367348         1.677184
 H        -0.123968        -1.372556        -0.422490
 H         0.200074        -1.298016         1.354959
 H        -0.678905         0.073164         0.346234
 H         1.998588         0.705455        -1.733932
 H         1.582799         1.964045        -0.286587
 H         4.463979         0.592012        -2.289982
 H         5.144396        -0.519473        -0.925079
 H         3.308910        -1.951259         0.375953
 H         4.281843         0.432991         1.961246
 H         3.477042         2.040268         1.665501
