19
Iteration:   534
 C         0.198570        -0.859188         0.745529
 C         1.455389        -0.232573         0.069329
 C         2.146145        -0.426059        -1.312117
 C         3.381417         0.417849        -0.584939
 C         4.577624        -0.443425        -0.495235
 O         3.939964        -1.341124         0.431248
 C         2.844150        -0.293316         0.724648
 C         2.685491         1.743792        -0.386848
 O         1.508436         1.245403         0.310168
 H         0.406969        -1.366234         1.666792
 H        -0.532591        -0.044449         1.011850
 H        -0.347992        -1.512895         0.078699
 H         2.331872        -1.428407        -1.585911
 H         1.703100         0.136895        -2.120789
 H         4.969015        -1.029030        -1.389898
 H         5.432183         0.090042         0.004615
 H         2.898237         0.147868         1.735300
 H         3.195809         2.434701         0.398924
 H         2.461760         2.412139        -1.213584
