19
Iteration:  3278
 C         0.046693        -0.680668         0.525134
 C         1.495560        -0.180801         0.220088
 C         1.906691         0.954519        -0.775002
 C         3.350420         0.496085        -0.232711
 C         4.297497        -0.091058        -1.306041
 O         3.440145        -1.220894        -1.377223
 C         2.808438        -0.942779        -0.089169
 C         3.338210         1.082645         1.135207
 O         2.042411         0.440732         1.525073
 H        -0.258538        -0.398934         1.505465
 H        -0.693416        -0.378191        -0.182662
 H         0.049996        -1.709478         0.433187
 H         1.829488         0.802319        -1.996545
 H         1.571241         1.975389        -0.464715
 H         4.096566         0.454655        -2.282816
 H         5.378230        -0.205414        -0.963137
 H         3.206736        -1.613105         0.671725
 H         4.113424         0.975908         1.803181
 H         3.222002         2.092846         0.938687
