19
Iteration:  2204charge 0 multiplicity 1
 C         0.090670        -0.748023         0.536917
 C         1.478855        -0.201770         0.173846
 C         1.951314         0.580313        -1.077759
 C         3.343564         0.611181        -0.385060
 C         4.391277        -0.283060        -1.182075
 O         3.568668        -1.481264        -0.935620
 C         2.939452        -0.828811         0.222257
 C         3.155518         1.418885         0.904998
 O         1.804333         0.843172         1.306606
 H         0.151730        -1.690328         1.221289
 H        -0.413996         0.107099         1.019286
 H        -0.582244        -1.086171        -0.308654
 H         2.051500         0.022430        -2.025286
 H         1.494811         1.509676        -1.290829
 H         4.557455         0.010730        -2.210071
 H         5.360279        -0.346651        -0.538770
 H         3.435590        -1.309243         1.060377
 H         3.923737         1.058239         1.637325
 H         2.999168         2.528325         0.744515
