19
Iteration:  1452
 C         0.022412        -0.842971         0.521988
 C         1.442116        -0.145428         0.175639
 C         2.014300         0.167463        -1.187632
 C         3.325833         0.470934        -0.441027
 C         4.505669        -0.362501        -0.907852
 O         3.780552        -1.597004        -0.465732
 C         2.976166        -0.688898         0.508947
 C         3.001021         1.671160         0.374001
 O         1.638722         1.197067         0.968973
 H         0.316696        -1.772384         1.127443
 H        -0.467114        -0.185633         1.287807
 H        -0.585130        -1.121029        -0.375418
 H         2.112779        -0.746441        -1.843115
 H         1.530336         1.034357        -1.509840
 H         4.774492        -0.237118        -2.001385
 H         5.357157         0.103760        -0.332289
 H         3.372217        -0.782917         1.509741
 H         3.736942         1.506477         1.220682
 H         2.847418         2.548781        -0.097572
