19
Iteration:  2003
 C         0.200438        -0.769674         0.451467
 C         1.532281        -0.164951         0.266152
 C         1.807868         0.465850        -1.044205
 C         3.298811         0.492368        -0.396957
 C         4.322736        -0.276686        -1.064899
 O         3.712989        -1.531783        -0.824373
 C         2.890397        -0.823542         0.331352
 C         3.160973         1.455913         0.738649
 O         1.804297         1.045955         1.116617
 H        -0.304620        -0.582586         1.423056
 H        -0.488156        -0.444178        -0.342143
 H         0.409071        -1.845207         0.435805
 H         1.725151        -0.330995        -1.698279
 H         1.204299         1.415319        -1.258901
 H         4.476072        -0.060789        -2.162986
 H         5.230039        -0.275759        -0.393357
 H         3.244917        -1.205833         1.318081
 H         3.666771         1.153468         1.565893
 H         3.158443         2.582746         0.618099
