19
Iteration:   104charge 0 multiplicity 1
 C         0.278162        -0.818887         0.752814
 C         1.493829        -0.198150         0.162775
 C         2.214337        -0.676284        -1.134175
 C         3.285710         0.291518        -0.519173
 C         4.620547        -0.342428        -0.346027
 O         4.011094        -1.186375         0.720893
 C         2.898164        -0.224739         0.871452
 C         2.659295         1.571026        -0.717911
 O         1.255556         1.362715        -0.188089
 H         0.136538        -1.816662         0.262726
 H         0.372171        -0.982193         1.823978
 H        -0.631551        -0.245421         0.559507
 H         2.411022        -1.762185        -1.179352
 H         1.838715        -0.293731        -2.111591
 H         5.086995        -0.931565        -1.150659
 H         5.378881         0.322515         0.081922
 H         3.155356         0.358258         1.822766
 H         3.097666         2.479256        -0.064294
 H         2.635993         2.028509        -1.834348
