19
Iteration:  3574charge 0 multiplicity 1
 C         0.041924        -0.639322         0.456292
 C         1.470592        -0.237531         0.293181
 C         1.922651         0.925704        -0.577669
 C         3.395578         0.455507        -0.187928
 C         4.260517         0.065666        -1.321929
 O         3.350376        -1.081607        -1.547268
 C         2.813063        -0.992888        -0.213275
 C         3.384794         0.973746         1.131106
 O         2.100670         0.362583         1.605162
 H        -0.297767        -0.543526         1.483896
 H        -0.700847         0.254317         0.016811
 H        -0.142691        -1.568257        -0.163110
 H         1.840983         0.721860        -1.651946
 H         1.694141         1.853264        -0.223543
 H         4.334696         0.824840        -2.146300
 H         5.229539        -0.292487        -0.988178
 H         3.138553        -1.841158         0.412174
 H         4.080162         0.666568         1.838724
 H         3.295613         1.987527         1.093060
