19
Iteration:  3867charge 0 multiplicity 1
 C         0.092448        -0.603014         0.555996
 C         1.451953        -0.100385         0.219107
 C         1.932523         1.072725        -0.577707
 C         3.323142         0.452476        -0.233745
 C         4.225884         0.107359        -1.352186
 O         3.422438        -1.106868        -1.606971
 C         2.804556        -0.979770        -0.275807
 C         3.413068         0.758141         1.245533
 O         2.039100         0.314686         1.616654
 H        -0.122079        -1.649245         0.158944
 H         0.182674        -0.750516         1.603403
 H        -0.792146        -0.063081         0.238514
 H         1.684266         0.993445        -1.648579
 H         1.684454         2.051861        -0.256814
 H         4.213083         0.687299        -2.295515
 H         5.215850        -0.202329        -1.158648
 H         3.204604        -1.704199         0.489744
 H         4.038590         0.161639         1.790103
 H         3.539258         1.832667         1.498880
