19
Iteration:  2240charge 0 multiplicity 1
 C         0.190103        -0.757534         0.486173
 C         1.515935        -0.124312         0.168663
 C         1.945148         0.652707        -1.030515
 C         3.336412         0.481384        -0.305254
 C         4.361372        -0.238300        -1.187540
 O         3.584223        -1.447566        -0.951753
 C         2.859218        -0.909676         0.226405
 C         3.115541         1.413083         0.835158
 O         1.821970         0.807721         1.337452
 H         0.085228        -0.554817         1.613874
 H        -0.646932        -0.168955         0.065120
 H         0.095123        -1.822598         0.188989
 H         1.983963         0.133384        -1.927386
 H         1.415240         1.621439        -1.106507
 H         4.406180         0.041094        -2.274769
 H         5.396195        -0.498517        -0.892640
 H         2.963174        -1.323483         1.165053
 H         3.917209         1.343281         1.679169
 H         3.156546         2.434819         0.565109
