19
Iteration:  3679charge 0 multiplicity 1
 C         0.021891        -0.632489         0.416002
 C         1.529474        -0.161093         0.284947
 C         2.010289         0.903420        -0.670024
 C         3.367514         0.522341        -0.236211
 C         4.286054         0.069669        -1.409553
 O         3.203654        -1.029494        -1.561393
 C         2.886111        -0.934361        -0.124847
 C         3.351322         0.851260         1.267487
 O         2.106418         0.298687         1.653547
 H        -0.769004         0.005479        -0.015561
 H         0.117755        -1.541667         0.046358
 H        -0.276003        -0.657961         1.434545
 H         1.653245         0.701411        -1.779689
 H         1.595265         1.937901        -0.438828
 H         4.427354         0.583243        -2.350215
 H         5.247186        -0.321918        -1.062411
 H         3.312701        -1.709937         0.552623
 H         4.206397         0.473670         1.821057
 H         3.246527         1.971090         1.539280
