19
Iteration:  1447charge 0 multiplicity 1
 C         0.063666        -0.811205         0.525480
 C         1.443376        -0.150646         0.164336
 C         2.025944         0.138075        -1.170042
 C         3.287914         0.507771        -0.436141
 C         4.509760        -0.330935        -0.929187
 O         3.763582        -1.596269        -0.439225
 C         2.995202        -0.711833         0.489378
 C         2.951415         1.645804         0.411632
 O         1.661710         1.173896         0.941743
 H         0.340058        -1.742665         0.991285
 H        -0.383940        -0.175720         1.286422
 H        -0.657383        -0.878681        -0.290948
 H         2.131772        -0.750662        -1.801930
 H         1.514300         1.055249        -1.651205
 H         4.742321        -0.298143        -1.975680
 H         5.388467        -0.196621        -0.256694
 H         3.499155        -0.821608         1.500136
 H         3.642328         1.631273         1.232702
 H         2.805216         2.675766        -0.172298
