19
Iteration:   615charge 0 multiplicity 1
 C         0.193146        -0.744718         0.619532
 C         1.525106        -0.185067         0.120297
 C         2.125021        -0.342176        -1.269943
 C         3.313457         0.383721        -0.522523
 C         4.633437        -0.401451        -0.608892
 O         3.989027        -1.446488         0.388020
 C         2.870240        -0.440792         0.804072
 C         2.613896         1.751817        -0.331697
 O         1.457612         1.239709         0.351653
 H        -0.683346        -0.066456         0.528011
 H         0.037895        -1.801084         0.375651
 H         0.434014        -0.682493         1.710769
 H         2.276418        -1.482843        -1.551925
 H         1.819489         0.182534        -2.264834
 H         4.781712        -0.849539        -1.594755
 H         5.604723        -0.148067        -0.113691
 H         3.033897         0.125379         1.730330
 H         3.218969         2.472763         0.341108
 H         2.195132         2.491858        -1.148511
