19
Iteration:  1541charge 0 multiplicity 1
 C         0.218582        -0.783709         0.557540
 C         1.524684        -0.163899         0.272261
 C         1.939905         0.246616        -1.192878
 C         3.270698         0.402974        -0.330331
 C         4.415962        -0.324617        -0.904450
 O         3.768537        -1.590235        -0.553501
 C         2.935584        -0.830978         0.433857
 C         3.004664         1.682771         0.405851
 O         1.640771         1.226407         0.927541
 H        -0.560395        -0.092051         0.888784
 H        -0.073937        -1.289676        -0.396674
 H         0.308252        -1.660713         1.315330
 H         2.194509        -0.424934        -1.932428
 H         1.344073         1.117571        -1.531981
 H         4.579970        -0.277403        -2.035857
 H         5.347245        -0.261313        -0.302935
 H         3.253449        -1.047232         1.412075
 H         3.688360         1.600381         1.344087
 H         2.803608         2.593849        -0.080313
