19
Iteration:  3715
 C         0.097451        -0.560528         0.478164
 C         1.494785        -0.131433         0.227949
 C         1.929527         1.049197        -0.574479
 C         3.359227         0.519789        -0.241045
 C         4.240886         0.061901        -1.373957
 O         3.371281        -1.154426        -1.576925
 C         2.782929        -0.996902        -0.227117
 C         3.332174         0.935786         1.275376
 O         2.114251         0.208374         1.602778
 H        -0.533669        -0.384536        -0.312184
 H         0.093043        -1.593789         0.633041
 H        -0.235053        -0.215978         1.387080
 H         1.610119         0.843540        -1.690299
 H         1.610405         1.994142        -0.133794
 H         4.273019         0.678960        -2.327935
 H         5.216108        -0.308394        -1.025696
 H         3.180295        -1.821209         0.400471
 H         4.211026         0.532353         1.971022
 H         3.120995         2.045837         1.455886
