19
Iteration:  3780
 C         0.141754        -0.745909         0.440404
 C         1.527762        -0.133752         0.302749
 C         2.021013         1.044977        -0.630367
 C         3.446183         0.515682        -0.188452
 C         4.242879        -0.004817        -1.392142
 O         3.133242        -0.989318        -1.624614
 C         2.806456        -0.932274        -0.157564
 C         3.448942         0.872685         1.277742
 O         2.000325         0.277710         1.610589
 H         0.111107        -1.666149        -0.094303
 H        -0.060505        -0.932013         1.426070
 H        -0.599800        -0.055920         0.141050
 H         1.769968         1.007608        -1.843935
 H         1.758095         2.057010        -0.227935
 H         4.429011         0.718284        -2.223069
 H         5.142684        -0.540386        -1.128274
 H         3.263604        -1.710423         0.519931
 H         4.163381         0.318071         1.893336
 H         3.412878         1.966156         1.485310
