19
Iteration:  1796
 C         0.158891        -0.876308         0.589181
 C         1.469141        -0.162678         0.153685
 C         1.909064         0.427238        -1.136144
 C         3.359536         0.563866        -0.436222
 C         4.461287        -0.361133        -1.007895
 O         3.696468        -1.573939        -0.661810
 C         2.878720        -0.762413         0.354234
 C         3.039781         1.584485         0.627941
 O         1.752422         1.078337         1.068805
 H        -0.747903        -0.207587         0.828768
 H        -0.076502        -1.598858        -0.225170
 H         0.263522        -1.461257         1.520964
 H         1.754389        -0.358183        -1.897624
 H         1.511876         1.375874        -1.430322
 H         4.598992        -0.464876        -2.071542
 H         5.349774        -0.244484        -0.420533
 H         3.257290        -1.007142         1.314026
 H         3.817896         1.510960         1.461560
 H         2.928600         2.614388         0.233527
