19
Iteration:  4155charge 0 multiplicity 1
 C         0.148570        -0.579378         0.585649
 C         1.524647        -0.153993         0.256054
 C         1.940432         0.990709        -0.640679
 C         3.384140         0.569228        -0.209974
 C         4.267135         0.042144        -1.284916
 O         3.273234        -1.105333        -1.584425
 C         2.816276        -0.888668        -0.248501
 C         3.357495         0.831882         1.286586
 O         2.043350         0.247511         1.476306
 H        -0.576392        -0.448807        -0.301832
 H         0.088612        -1.750661         0.666673
 H        -0.464881        -0.183636         1.485662
 H         1.810303         0.742487        -1.759824
 H         1.614728         1.939547        -0.570818
 H         4.518517         0.689753        -2.234860
 H         5.218442        -0.434268        -0.934989
 H         3.232398        -1.692582         0.399029
 H         4.119821         0.404287         2.038073
 H         3.262843         1.889417         1.560188
