19
Iteration:  3583
 C         0.080201        -0.623573         0.428842
 C         1.522067        -0.212024         0.281170
 C         1.934638         0.933250        -0.630613
 C         3.331049         0.464738        -0.226823
 C         4.254039         0.025019        -1.258327
 O         3.334437        -1.055176        -1.605271
 C         2.778537        -1.011985        -0.132421
 C         3.394241         0.988775         1.170598
 O         2.090966         0.340533         1.635248
 H        -0.189952        -0.638138         1.485402
 H        -0.484636         0.077678        -0.287302
 H        -0.112246        -1.648092         0.130114
 H         1.509204         0.940142        -1.717447
 H         1.735304         1.897575        -0.298168
 H         4.285632         0.665633        -2.216089
 H         5.250068        -0.378202        -1.006482
 H         3.306115        -1.840757         0.354166
 H         4.305008         0.697133         1.816077
 H         3.207551         2.061727         1.227090
