19
Iteration:  2591charge 0 multiplicity 1
 C         0.193701        -0.794501         0.537504
 C         1.491247        -0.113571         0.202390
 C         2.059131         0.778020        -0.980170
 C         3.373214         0.558667        -0.340344
 C         4.357181        -0.328371        -1.217792
 O         3.408182        -1.434087        -1.129809
 C         2.890381        -0.850136         0.099840
 C         3.103337         1.431810         1.012092
 O         1.900807         0.662924         1.394253
 H         0.269053        -1.122321         1.581925
 H        -0.635733         0.042302         0.461822
 H        -0.088691        -1.625952        -0.176571
 H         1.971694         0.061115        -1.854798
 H         1.695956         1.782058        -1.235379
 H         4.331042         0.059910        -2.253006
 H         5.326276        -0.359394        -0.760342
 H         3.215129        -1.372659         1.124897
 H         3.849722         1.383094         1.901434
 H         2.659006         2.480975         0.775738
