19
Iteration:   752
 C         0.230519        -0.843603         0.644290
 C         1.475107        -0.154492         0.142048
 C         2.007077        -0.360292        -1.291908
 C         3.271894         0.405956        -0.584000
 C         4.588370        -0.440393        -0.534460
 O         3.891790        -1.451305         0.193044
 C         2.914927        -0.373269         0.592523
 C         2.796952         1.741516        -0.109026
 O         1.503692         1.348115         0.467058
 H        -0.367662        -0.310574         1.416962
 H        -0.463843        -1.060103        -0.148725
 H         0.577482        -1.836862         1.039574
 H         2.403359        -1.356273        -1.533186
 H         1.462317         0.037108        -2.049979
 H         4.875413        -0.876477        -1.494090
 H         5.395295         0.028152        -0.034221
 H         3.119138        -0.104467         1.651317
 H         3.500789         1.991037         0.646516
 H         2.902985         2.633266        -0.798373
