19
Iteration:   130charge 0 multiplicity 1
 C         0.224506        -0.846667         0.752936
 C         1.484709        -0.235201         0.125654
 C         2.116097        -0.657498        -1.130645
 C         3.327928         0.326790        -0.709964
 C         4.693116        -0.308440        -0.323453
 O         3.934376        -1.201023         0.756764
 C         2.831747        -0.161659         0.747891
 C         2.705328         1.646355        -0.711056
 O         1.402018         1.257000        -0.027906
 H         0.568678        -1.827368         1.162090
 H        -0.143051        -0.202329         1.596962
 H        -0.625034        -1.106941         0.044770
 H         2.469587        -1.672067        -0.929363
 H         1.558017        -0.625544        -2.085102
 H         5.372054        -0.947738        -1.003227
 H         5.351384         0.412279         0.170976
 H         2.977751         0.465081         1.584963
 H         3.217323         2.365719        -0.024086
 H         2.421751         2.280336        -1.625389
