19
Iteration:  1077charge 0 multiplicity 1
 C         0.175678        -0.804073         0.569985
 C         1.492118        -0.139343         0.171951
 C         1.977649         0.072267        -1.248097
 C         3.303983         0.428526        -0.507622
 C         4.556390        -0.420655        -0.786432
 O         3.901184        -1.597185        -0.013390
 C         2.948843        -0.650520         0.588070
 C         2.830249         1.739743         0.070494
 O         1.547677         1.217016         0.728329
 H         0.231788        -1.216642         1.569315
 H        -0.641915        -0.104796         0.481819
 H        -0.003159        -1.640038        -0.165226
 H         2.133254        -0.913276        -1.801639
 H         1.364084         0.724306        -1.822591
 H         4.688893        -0.613142        -1.855826
 H         5.458466        -0.098425        -0.305964
 H         3.122378        -0.355824         1.587808
 H         3.526493         2.263829         0.849278
 H         2.676956         2.510158        -0.698278
