19
Iteration:  1133charge 0 multiplicity 1
 C         0.166898        -0.753157         0.622322
 C         1.543451        -0.176946         0.175822
 C         2.047295         0.012437        -1.259165
 C         3.332873         0.490273        -0.532163
 C         4.554509        -0.511903        -0.769161
 O         3.829591        -1.537506        -0.167291
 C         2.982083        -0.600250         0.590100
 C         2.736759         1.780172         0.202410
 O         1.562174         1.143171         0.686675
 H        -0.387549         0.132404         0.941826
 H        -0.304227        -1.188589        -0.261246
 H         0.224016        -1.517406         1.389120
 H         2.078046        -0.904878        -1.787697
 H         1.469781         0.826073        -1.763792
 H         4.942831        -0.645052        -1.788315
 H         5.402959        -0.243367        -0.179969
 H         3.158996        -0.409532         1.629197
 H         3.416926         1.922607         1.129471
 H         2.520866         2.633828        -0.413162
