19
Iteration:  4055
 C         0.159990        -0.677319         0.512856
 C         1.487697        -0.133915         0.239776
 C         2.038936         1.058382        -0.636580
 C         3.385643         0.561326        -0.182899
 C         4.201013         0.029206        -1.375229
 O         3.276529        -1.051579        -1.623141
 C         2.793556        -0.931455        -0.243841
 C         3.431361         0.843009         1.309649
 O         1.999570         0.251403         1.610497
 H        -0.118581        -1.527175        -0.233803
 H         0.051513        -1.054381         1.591542
 H        -0.681927         0.027133         0.290884
 H         1.822293         0.994521        -1.753230
 H         1.653373         1.909029        -0.274565
 H         4.325234         0.589037        -2.393715
 H         5.149587        -0.393195        -0.973048
 H         3.067323        -1.774216         0.528102
 H         4.229845         0.332590         1.866813
 H         3.259338         1.884177         1.618543
