19
Iteration:  1984
 C         0.148162        -0.825420         0.496000
 C         1.490149        -0.186308         0.232576
 C         1.892491         0.407782        -1.153742
 C         3.285813         0.596803        -0.468303
 C         4.460538        -0.287162        -1.063128
 O         3.517201        -1.504930        -0.737905
 C         2.959186        -0.716601         0.295364
 C         3.147013         1.492280         0.773606
 O         1.807839         0.951183         1.202305
 H        -0.134350        -0.962356         1.549276
 H        -0.605785        -0.059037         0.084667
 H         0.158037        -1.847835        -0.033382
 H         1.914485        -0.311022        -1.969788
 H         1.350038         1.288126        -1.493640
 H         4.642075        -0.318975        -2.117015
 H         5.371579        -0.363653        -0.434237
 H         3.470978        -0.987805         1.188128
 H         4.115578         1.233465         1.443835
 H         3.067018         2.596802         0.570774
