19
Iteration:  1313
 C         0.242595        -0.811945         0.612588
 C         1.481405        -0.205160         0.163318
 C         2.086100         0.211510        -1.265066
 C         3.357164         0.488217        -0.391455
 C         4.452822        -0.409614        -0.846450
 O         3.824501        -1.679802        -0.303615
 C         2.846385        -0.665745         0.503385
 C         2.883121         1.746449         0.290577
 O         1.557917         1.210876         0.843171
 H        -0.272309        -0.270473         1.351231
 H        -0.345498        -0.906945        -0.270869
 H         0.316331        -1.774460         1.095893
 H         2.125237        -0.777564        -1.838295
 H         1.705054         1.037939        -1.853751
 H         4.521764        -0.332635        -1.953932
 H         5.418802        -0.187356        -0.494735
 H         3.161369        -0.828847         1.546231
 H         3.621143         1.975828         1.007663
 H         2.589230         2.507069        -0.451910
