19
Iteration:  4686charge 0 multiplicity 1
 C         0.115081        -0.727077         0.415822
 C         1.541396        -0.113508         0.203221
 C         1.961604         0.982659        -0.664038
 C         3.422503         0.482032        -0.231225
 C         4.224774        -0.032243        -1.377119
 O         3.123993        -0.979084        -1.630723
 C         2.831021        -0.956907        -0.173423
 C         3.400277         0.927100         1.416646
 O         2.117355         0.337128         1.661412
 H        -0.063291        -1.439485        -0.438178
 H         0.176896        -1.233759         1.392424
 H        -0.638070         0.006797         0.319076
 H         1.893912         0.732789        -1.677165
 H         1.656271         2.048066        -0.278146
 H         4.502425         0.620641        -2.191245
 H         5.123795        -0.666791        -1.138356
 H         3.216855        -1.759488         0.242264
 H         4.104289         0.447269         2.084697
 H         3.354893         1.950422         1.667639
