19
Iteration:  4296
 C         0.123721        -0.652894         0.551696
 C         1.471226        -0.104470         0.221537
 C         1.894214         1.058758        -0.660857
 C         3.416789         0.544874        -0.199049
 C         4.266032        -0.016296        -1.393177
 O         3.330615        -1.052489        -1.564491
 C         2.827611        -0.815913        -0.209986
 C         3.374649         0.707395         1.296021
 O         2.008025         0.292442         1.569308
 H        -0.193424        -1.290091        -0.306291
 H         0.378177        -1.280147         1.474885
 H        -0.637202         0.173761         0.712373
 H         1.730217         0.818822        -1.790411
 H         1.405236         1.973850        -0.481804
 H         4.319748         0.669302        -2.292491
 H         5.269947        -0.334080        -1.197306
 H         3.333782        -1.760773         0.498515
 H         4.079326        -0.007833         1.760354
 H         3.556508         1.718766         1.821609
