19
Iteration:  3889charge 0 multiplicity 1
 C         0.099565        -0.661631         0.567470
 C         1.505735        -0.175749         0.292375
 C         1.974719         1.040122        -0.640298
 C         3.411456         0.460331        -0.198724
 C         4.278756         0.060428        -1.327028
 O         3.331440        -1.057663        -1.631666
 C         2.673383        -0.942820        -0.237620
 C         3.392758         0.927366         1.277709
 O         2.088858         0.253212         1.558849
 H        -0.316072        -1.447285        -0.180465
 H        -0.036919        -1.103698         1.529759
 H        -0.618166         0.128904         0.319487
 H         1.735272         0.940168        -1.714215
 H         1.794698         2.038248        -0.372575
 H         4.318755         0.745375        -2.218819
 H         5.261847        -0.320431        -1.146731
 H         2.891532        -1.919966         0.292131
 H         4.061482         0.469432         1.911965
 H         3.304948         2.015422         1.489543
