19
Iteration:  4513charge 0 multiplicity 1
 C         0.105214        -0.714005         0.468865
 C         1.516326        -0.097831         0.242838
 C         1.961640         1.096964        -0.648447
 C         3.364090         0.523695        -0.184928
 C         4.179601         0.092562        -1.396923
 O         3.279745        -1.146803        -1.505154
 C         2.787484        -0.856445        -0.229154
 C         3.444582         0.715868         1.308374
 O         2.055140         0.309276         1.560108
 H        -0.156075        -1.260878        -0.509796
 H         0.081259        -1.419580         1.367336
 H        -0.545841         0.123988         0.699441
 H         1.730928         1.134818        -1.602744
 H         1.840351         2.082027        -0.299609
 H         4.109087         0.700276        -2.337874
 H         5.231571        -0.266571        -1.163625
 H         3.357405        -1.625402         0.476764
 H         4.174019         0.127561         1.840194
 H         3.661588         1.846260         1.476406
