19
Iteration:  1288
 C         0.136887        -0.782898         0.562991
 C         1.454494        -0.202479         0.170359
 C         1.911259         0.073521        -1.214215
 C         3.375039         0.497187        -0.487268
 C         4.531853        -0.392740        -0.815616
 O         3.766216        -1.512432        -0.283251
 C         2.967394        -0.639178         0.543165
 C         2.906108         1.660710         0.311396
 O         1.675767         1.164621         0.758286
 H         0.026809        -0.844737         1.659431
 H        -0.709112        -0.243497         0.089411
 H         0.014078        -1.831764         0.322681
 H         1.948334        -0.893157        -1.773014
 H         1.460497         0.856643        -1.794952
 H         4.964671        -0.326200        -1.851496
 H         5.332974        -0.098625        -0.101136
 H         3.296342        -0.697463         1.572491
 H         3.615736         1.729914         1.250134
 H         2.738415         2.532282        -0.258509
