19
Iteration:  1101
 C         0.134724        -0.806590         0.545931
 C         1.490900        -0.150495         0.171548
 C         2.001153        -0.106921        -1.225424
 C         3.260212         0.396703        -0.471511
 C         4.499411        -0.387735        -0.788933
 O         3.880419        -1.495670        -0.139314
 C         2.945529        -0.617010         0.659685
 C         2.877467         1.741022         0.151597
 O         1.607197         1.260484         0.674459
 H        -0.131768        -0.507016         1.566067
 H        -0.603979        -0.507759        -0.203536
 H         0.247494        -1.879699         0.491287
 H         2.088649        -1.073191        -1.650831
 H         1.422175         0.589232        -1.910024
 H         4.722686        -0.368068        -1.898947
 H         5.402642        -0.040476        -0.258092
 H         3.129332        -0.635523         1.764220
 H         3.706522         1.877625         1.008634
 H         2.858138         2.670158        -0.415195
