19
Iteration:  4101charge 0 multiplicity 1
 C         0.180029        -0.714444         0.311237
 C         1.508113        -0.101813         0.339746
 C         1.975065         1.022791        -0.524518
 C         3.340166         0.534899        -0.218829
 C         4.121743         0.017465        -1.387789
 O         3.290453        -1.093335        -1.600447
 C         2.745392        -0.931485        -0.164834
 C         3.480972         0.872120         1.275896
 O         2.065217         0.356775         1.636365
 H        -0.051234        -1.163958        -0.645346
 H         0.151331        -1.464865         1.141867
 H        -0.648449         0.033210         0.423551
 H         1.847268         0.662888        -1.650246
 H         1.750100         2.109241        -0.324384
 H         4.172992         0.718001        -2.299159
 H         5.105041        -0.326929        -1.082156
 H         3.177633        -1.948919         0.381800
 H         4.103741         0.102565         1.834139
 H         3.634778         1.848711         1.631110
