19
Iteration:  2849charge 0 multiplicity 1
 C         0.213365        -0.756983         0.564958
 C         1.493907        -0.058807         0.193681
 C         1.944396         0.800795        -1.021176
 C         3.382906         0.588638        -0.259836
 C         4.297719        -0.195188        -1.269814
 O         3.421535        -1.369661        -1.237150
 C         2.873032        -0.835487         0.083332
 C         3.214795         1.184997         1.144270
 O         1.896856         0.578860         1.404564
 H         0.353822        -1.863564         0.559609
 H        -0.175087        -0.193073         1.491999
 H        -0.597085        -0.582053        -0.186055
 H         1.905187         0.301292        -1.995571
 H         1.500909         1.699188        -0.964389
 H         4.341025         0.321555        -2.219088
 H         5.281824        -0.459272        -0.972240
 H         3.275623        -1.347662         0.949488
 H         4.014752         0.883885         1.858573
 H         3.116095         2.331849         1.131050
