19
Iteration:  1223charge 0 multiplicity 1
 C         0.157394        -0.823168         0.569400
 C         1.523114        -0.262427         0.129135
 C         2.028214         0.093745        -1.270282
 C         3.354171         0.487759        -0.414598
 C         4.451602        -0.438344        -0.878244
 O         3.799235        -1.547117        -0.183024
 C         2.983780        -0.641347         0.599672
 C         2.908800         1.796709         0.200921
 O         1.563972         1.215892         0.822325
 H         0.042545        -1.789475         0.072198
 H         0.100925        -0.872424         1.661140
 H        -0.644671        -0.240730         0.181123
 H         2.128450        -0.842257        -1.854658
 H         1.506651         0.903382        -1.792128
 H         4.733677        -0.694523        -1.910379
 H         5.368967        -0.371387        -0.406716
 H         3.050341        -0.785605         1.679013
 H         3.557535         2.146216         1.052862
 H         2.616675         2.481166        -0.568470
