19
Iteration:   983charge 0 multiplicity 1
 C         0.174069        -0.774926         0.635413
 C         1.502391        -0.197666         0.149512
 C         2.050918        -0.059120        -1.318150
 C         3.274707         0.422403        -0.506296
 C         4.544433        -0.434782        -0.714698
 O         3.852788        -1.535782        -0.031738
 C         2.952128        -0.504654         0.661322
 C         2.829633         1.753132         0.072919
 O         1.563299         1.170975         0.603917
 H        -0.412369        -1.072394        -0.245512
 H         0.433862        -1.630714         1.300249
 H        -0.323774         0.020265         1.184321
 H         2.143646        -0.968769        -1.866479
 H         1.326844         0.603873        -1.851895
 H         4.842667        -0.708787        -1.752917
 H         5.344879        -0.119740        -0.025765
 H         3.408122        -0.356457         1.686506
 H         3.292907         2.259489         0.830126
 H         2.503889         2.542440        -0.603724
