19
Iteration:  2667
 C         0.094765        -0.715041         0.545141
 C         1.478325        -0.150567         0.238983
 C         1.924740         0.750870        -0.939218
 C         3.404723         0.597012        -0.314907
 C         4.382404        -0.270912        -1.293591
 O         3.558149        -1.415144        -1.059147
 C         2.835516        -0.832397         0.067005
 C         3.133580         1.342574         0.960607
 O         1.913900         0.596009         1.372332
 H        -0.218549        -0.135654         1.369389
 H        -0.669311        -0.587190        -0.272084
 H         0.147420        -1.784014         0.766538
 H         1.876166         0.245584        -2.023705
 H         1.482769         1.808893        -1.087219
 H         4.490149         0.125725        -2.348112
 H         5.409897        -0.449261        -0.868699
 H         3.158864        -1.250303         1.133048
 H         3.946701         1.162599         1.742884
 H         2.932721         2.482106         0.969807
