19
Iteration:  1962
 C         0.206502        -0.797517         0.564656
 C         1.476914        -0.085754         0.199620
 C         2.026267         0.521048        -1.152660
 C         3.362428         0.548147        -0.382518
 C         4.383107        -0.395941        -1.075336
 O         3.601382        -1.537064        -0.770158
 C         2.882052        -0.803383         0.298560
 C         2.987550         1.575147         0.687193
 O         1.788435         0.876697         1.212718
 H         0.464306        -1.449146         1.416210
 H        -0.549675        -0.066867         0.991475
 H        -0.186221        -1.465303        -0.267317
 H         2.053494        -0.079903        -2.027758
 H         1.615016         1.488793        -1.488650
 H         4.537825        -0.284275        -2.140506
 H         5.352437        -0.395876        -0.549896
 H         3.236993        -1.035716         1.285250
 H         3.817848         1.806707         1.483092
 H         2.676848         2.483977         0.109980
