19
Iteration:   260
 C         0.271597        -0.753080         0.808941
 C         1.508520        -0.178367         0.078130
 C         2.259151        -0.514618        -1.290292
 C         3.279870         0.376186        -0.561434
 C         4.572542        -0.380717        -0.351355
 O         3.984561        -1.252669         0.625980
 C         2.859924        -0.317343         0.837292
 C         2.610233         1.628971        -0.643274
 O         1.385483         1.217524         0.050880
 H        -0.333095        -1.225464         0.053390
 H         0.698826        -1.546726         1.454208
 H        -0.326089        -0.069140         1.439480
 H         2.577098        -1.584712        -1.318597
 H         1.788116        -0.129638        -2.203295
 H         4.752567        -1.028608        -1.266285
 H         5.448403         0.083995         0.037947
 H         2.856461         0.220664         1.852936
 H         2.904738         2.614385        -0.150357
 H         2.524622         2.093060        -1.690554
