19
Iteration:  4324
 C         0.083715        -0.630560         0.558205
 C         1.508592        -0.136153         0.224770
 C         1.984572         1.047523        -0.657846
 C         3.377562         0.516758        -0.190951
 C         4.203343         0.059110        -1.311822
 O         3.350800        -1.107720        -1.590100
 C         2.760527        -0.947887        -0.226762
 C         3.353338         0.875438         1.250164
 O         2.087334         0.215395         1.578236
 H        -0.480177        -0.726348        -0.395284
 H         0.117570        -1.593235         1.040425
 H        -0.414094         0.133219         1.244278
 H         1.898080         0.953574        -1.807569
 H         1.637156         2.138042        -0.444962
 H         4.259973         0.790025        -2.120023
 H         5.265158        -0.236079        -1.011310
 H         3.082951        -1.731290         0.272727
 H         4.204560         0.366065         1.755631
 H         3.314311         1.939269         1.458747
