19
Iteration:  4645charge 0 multiplicity 1
 C         0.085463        -0.606639         0.445137
 C         1.500870        -0.146240         0.262368
 C         1.902474         1.083789        -0.602817
 C         3.346437         0.543259        -0.183587
 C         4.199734         0.042648        -1.392860
 O         3.362547        -1.162380        -1.607017
 C         2.783420        -0.920366        -0.216037
 C         3.409644         0.832249         1.286867
 O         2.106430         0.261725         1.598280
 H        -0.224685        -1.393554        -0.355095
 H         0.180927        -1.169356         1.479228
 H        -0.732020         0.213362         0.403880
 H         1.493981         1.102683        -1.621980
 H         1.810983         1.958419        -0.028365
 H         4.306060         0.677709        -2.286632
 H         5.145293        -0.255600        -1.022996
 H         3.156985        -1.714542         0.608628
 H         4.219807         0.300331         1.769354
 H         3.558227         1.916057         1.553342
