19
Iteration:  4578
 C         0.127016        -0.644796         0.476144
 C         1.514739        -0.149953         0.260604
 C         1.976103         0.984565        -0.603632
 C         3.460826         0.460215        -0.205385
 C         4.278701        -0.028688        -1.378756
 O         3.222313        -1.024823        -1.578918
 C         2.786018        -0.940793        -0.252267
 C         3.425584         1.004082         1.277420
 O         2.033696         0.255649         1.588164
 H        -0.672946        -0.521430        -0.403823
 H         0.119045        -1.793991         0.723297
 H        -0.404901        -0.157913         1.317659
 H         1.685133         0.997118        -1.558034
 H         1.631953         1.911384        -0.125727
 H         4.407447         0.555428        -2.279651
 H         5.162472        -0.480746        -1.015178
 H         3.014509        -1.990682         0.332490
 H         4.112954         0.686440         2.030839
 H         3.177694         2.059609         1.489274
