19
Iteration:  1519
 C         0.116217        -0.844583         0.587435
 C         1.526265        -0.188322         0.194686
 C         2.049047         0.257396        -1.201183
 C         3.414699         0.525637        -0.405990
 C         4.495848        -0.402098        -0.975504
 O         3.648298        -1.556459        -0.491999
 C         2.935944        -0.640772         0.436539
 C         2.917008         1.702510         0.489832
 O         1.682571         1.095404         0.925526
 H        -0.291536        -0.278889         1.432200
 H        -0.630775        -1.001554        -0.214094
 H         0.400055        -1.885566         1.006440
 H         2.073911        -0.623645        -1.755930
 H         1.565314         1.123697        -1.678906
 H         4.523543        -0.691185        -2.063021
 H         5.507607        -0.496139        -0.547228
 H         3.174397        -0.824815         1.453659
 H         3.440273         1.776944         1.489567
 H         2.640226         2.550816        -0.004190
