19
Iteration:  2965
 C         0.126991        -0.680858         0.522844
 C         1.497844        -0.148199         0.230356
 C         1.885702         0.843938        -0.827456
 C         3.271504         0.516682        -0.311005
 C         4.305740        -0.127130        -1.261634
 O         3.563431        -1.357640        -1.359989
 C         2.795915        -1.013390         0.037475
 C         3.293296         1.198145         1.115882
 O         1.944938         0.643595         1.426436
 H        -0.376289        -0.130312         1.359617
 H        -0.414036        -0.787031        -0.398617
 H         0.182933        -1.700069         1.013664
 H         1.710669         0.508211        -1.821535
 H         1.404505         2.032621        -0.614414
 H         4.554887         0.253536        -2.270862
 H         5.321320        -0.253849        -0.717686
 H         3.247011        -1.565551         0.914371
 H         4.046388         0.927419         1.861351
 H         3.221211         2.242479         1.083595
