19
Iteration:  3372charge 0 multiplicity 1
 C         0.225738        -0.649314         0.493639
 C         1.561974        -0.139742         0.237836
 C         1.967610         0.864439        -0.788787
 C         3.393753         0.574387        -0.245841
 C         4.327015        -0.071150        -1.327637
 O         3.264986        -1.201492        -1.496055
 C         2.812231        -0.921715        -0.080212
 C         3.226439         1.075301         1.236094
 O         2.002906         0.418961         1.563513
 H        -0.581170         0.026607        -0.005341
 H         0.011111        -1.842079         0.182446
 H         0.012866        -0.758857         1.640774
 H         1.748719         0.562272        -1.717770
 H         1.605765         1.888846        -0.610138
 H         4.335662         0.430996        -2.282332
 H         5.224586        -0.565029        -1.023534
 H         3.216215        -1.683318         0.627393
 H         4.034018         0.699121         1.982521
 H         3.083146         2.151785         1.377399
