19
Iteration:   959charge 0 multiplicity 1
 C         0.180397        -0.763295         0.612729
 C         1.490579        -0.190604         0.086658
 C         2.064909        -0.125229        -1.312962
 C         3.303277         0.454702        -0.582295
 C         4.556896        -0.415148        -0.719361
 O         3.851311        -1.512316         0.079038
 C         2.958422        -0.585711         0.568200
 C         2.815538         1.801221         0.032296
 O         1.541408         1.189038         0.732243
 H        -0.643516        -0.297571         0.107746
 H         0.172831        -1.809216         0.518173
 H         0.151844        -0.469774         1.668380
 H         2.134744        -1.160436        -1.738268
 H         1.499353         0.457698        -1.984839
 H         4.675975        -0.848312        -1.745231
 H         5.468927        -0.039325        -0.214807
 H         3.196866        -0.407363         1.644153
 H         3.315680         2.320324         0.742231
 H         2.461536         2.503009        -0.625629
