19
Iteration:  3918charge 0 multiplicity 1
 C         0.170902        -0.666340         0.418925
 C         1.576517        -0.200602         0.298590
 C         1.964372         0.962533        -0.655256
 C         3.403406         0.585752        -0.230610
 C         4.216826        -0.031080        -1.337805
 O         3.148258        -1.015694        -1.604001
 C         2.842858        -0.836320        -0.143871
 C         3.357540         0.880414         1.274114
 O         2.081997         0.260351         1.627350
 H        -0.204112        -0.886038        -0.645693
 H         0.015766        -1.580727         1.055126
 H        -0.463395         0.203984         0.831080
 H         1.815544         0.755892        -1.680660
 H         1.586226         1.996722        -0.524190
 H         4.499294         0.431766        -2.270986
 H         5.106225        -0.649795        -0.935147
 H         3.350854        -1.582918         0.408991
 H         4.122817         0.290123         1.885357
 H         3.248642         1.950792         1.568067
