19
Iteration:  2603charge 0 multiplicity 1
 C         0.135983        -0.747282         0.508467
 C         1.550471        -0.178432         0.229807
 C         1.949935         0.674037        -1.050541
 C         3.417536         0.580528        -0.278369
 C         4.378614        -0.288241        -1.265719
 O         3.421007        -1.396013        -1.108800
 C         2.905720        -0.770112         0.111925
 C         3.111224         1.341180         1.038484
 O         1.873712         0.715128         1.417483
 H        -0.005005        -0.910541         1.616680
 H        -0.757941        -0.040404         0.170284
 H         0.010761        -1.786089         0.034399
 H         1.972991         0.148301        -2.002011
 H         1.492180         1.630294        -1.158532
 H         4.522735         0.060785        -2.307650
 H         5.282802        -0.799012        -1.020201
 H         3.504445        -1.237115         1.003284
 H         3.934891         1.178058         1.850456
 H         3.085035         2.488823         0.908731
