19
Iteration:  3070charge 0 multiplicity 1
 C         0.155012        -0.699368         0.441763
 C         1.496848        -0.166979         0.171989
 C         1.891582         0.809290        -0.881843
 C         3.367768         0.581081        -0.285020
 C         4.261330        -0.039261        -1.310566
 O         3.336210        -1.321959        -1.265151
 C         2.870817        -0.842223         0.078101
 C         3.297111         1.079063         1.134348
 O         2.030385         0.549624         1.508781
 H        -0.306274        -0.832974        -0.482649
 H         0.181808        -1.706098         0.945663
 H        -0.305688        -0.097172         1.149851
 H         1.916700         0.306508        -1.952099
 H         1.482969         1.785155        -0.878940
 H         4.445032         0.296789        -2.343459
 H         5.117279        -0.213604        -0.722682
 H         3.165248        -1.578391         0.804089
 H         4.150285         0.669702         1.712896
 H         3.353677         2.244926         1.243347
