19
Iteration:  3068charge 0 multiplicity 1
 C         0.142864        -0.722996         0.443229
 C         1.495092        -0.163808         0.177151
 C         1.906417         0.791388        -0.863103
 C         3.380371         0.575984        -0.263630
 C         4.264952        -0.039639        -1.315704
 O         3.325858        -1.328985        -1.267751
 C         2.864598        -0.837284         0.052549
 C         3.302062         1.098090         1.148887
 O         2.031352         0.567914         1.503573
 H        -0.353214        -0.770267        -0.451304
 H         0.139715        -1.740419         0.837717
 H        -0.303912        -0.098368         1.105265
 H         1.937396         0.235164        -1.966660
 H         1.439921         1.893585        -0.886205
 H         4.396414         0.301488        -2.365119
 H         5.200513        -0.203416        -0.746286
 H         3.222919        -1.556754         0.798839
 H         4.160412         0.691411         1.671967
 H         3.320512         2.180382         1.237043
