19
Iteration:  3598
 C         0.166393        -0.666945         0.441037
 C         1.538893        -0.145628         0.305039
 C         1.893240         0.975986        -0.703809
 C         3.373438         0.539791        -0.213450
 C         4.274162        -0.031019        -1.356796
 O         3.254863        -1.089178        -1.606875
 C         2.812972        -0.917012        -0.142564
 C         3.339489         0.971655         1.283571
 O         2.100305         0.289210         1.609248
 H        -0.295697        -0.268901         1.357932
 H        -0.642491        -0.192936        -0.307294
 H         0.194237        -1.801682         0.215508
 H         1.771897         0.648450        -1.669891
 H         1.511193         1.970827        -0.383075
 H         4.571388         0.597318        -2.173650
 H         5.107224        -0.489234        -0.818934
 H         3.103920        -1.679391         0.588241
 H         4.056170         0.467348         1.814578
 H         3.312021         1.999408         1.533281
