19
Iteration:  4328
 C         0.074488        -0.597152         0.542523
 C         1.517245        -0.147219         0.215941
 C         1.940661         1.043340        -0.623608
 C         3.369462         0.492695        -0.187844
 C         4.217160         0.017910        -1.314610
 O         3.357835        -1.079503        -1.592124
 C         2.756394        -0.942231        -0.222330
 C         3.362077         0.897727         1.242234
 O         2.099334         0.214315         1.579274
 H        -0.486691        -0.720961        -0.376593
 H         0.084844        -1.614384         0.933772
 H        -0.443383        -0.054685         1.251292
 H         1.968361         0.949281        -1.814775
 H         1.704475         2.069360        -0.407243
 H         4.202454         0.861810        -2.033844
 H         5.218972        -0.220990        -1.050108
 H         3.209686        -1.893483         0.368636
 H         4.159332         0.432450         1.756292
 H         3.372389         2.022378         1.302858
