19
Iteration:  1933charge 0 multiplicity 1
 C         0.175296        -0.820877         0.588896
 C         1.511101        -0.184444         0.207285
 C         1.909835         0.500012        -1.142293
 C         3.383371         0.492447        -0.284640
 C         4.404893        -0.318768        -1.054698
 O         3.687793        -1.572085        -0.825403
 C         2.849224        -0.892379         0.334869
 C         3.086524         1.596156         0.679937
 O         1.712330         1.049387         1.110572
 H         0.211065        -1.817421         0.967578
 H        -0.116960        -0.192008         1.416023
 H        -0.546621        -0.780719        -0.212397
 H         1.992948        -0.044575        -2.193462
 H         1.460712         1.473377        -1.166864
 H         4.432418        -0.019033        -2.126278
 H         5.370867        -0.390523        -0.535975
 H         3.282512        -1.354833         1.302003
 H         3.815517         1.714261         1.472137
 H         3.007376         2.487887         0.125292
