19
Iteration:  3421charge 0 multiplicity 1
 C         0.112641        -0.608773         0.447934
 C         1.435950        -0.106425         0.293565
 C         1.849555         0.979633        -0.653868
 C         3.274972         0.500451        -0.251171
 C         4.258033        -0.006899        -1.374744
 O         3.548131        -1.256769        -1.438103
 C         2.789719        -0.955200        -0.149473
 C         3.398528         0.926305         1.153211
 O         2.014147         0.461200         1.576940
 H        -0.428722        -0.787263        -0.447697
 H         0.322156        -1.597091         1.059884
 H        -0.451062        -0.082182         1.191876
 H         1.590387         0.677924        -1.785871
 H         1.534718         1.994702        -0.418368
 H         4.317795         0.341643        -2.419367
 H         5.269655        -0.240616        -0.955722
 H         3.072885        -1.784590         0.484249
 H         4.135469         0.450815         1.726649
 H         3.365898         2.181088         1.313432
