19
Iteration:  2307
 C         0.204444        -0.764497         0.562859
 C         1.518052        -0.176689         0.132100
 C         2.009299         0.762405        -1.099123
 C         3.393238         0.566636        -0.276099
 C         4.266448        -0.285989        -1.188253
 O         3.474988        -1.501428        -0.939888
 C         2.880694        -0.816107         0.175107
 C         3.085609         1.418565         0.913053
 O         1.897185         0.731678         1.277866
 H        -0.471313        -0.035355         1.095676
 H        -0.366326        -1.295404        -0.295804
 H         0.397180        -1.600566         1.277707
 H         2.146262         0.027151        -1.923018
 H         1.458976         1.672557        -1.337630
 H         4.405739        -0.050197        -2.304442
 H         5.310811        -0.345649        -0.725726
 H         3.269200        -1.181158         1.071086
 H         3.836615         1.361095         1.877022
 H         2.919007         2.487220         0.782234
