19
Iteration:  3346
 C         0.102894        -0.795976         0.472900
 C         1.488061        -0.121263         0.266584
 C         2.017071         0.889430        -0.679976
 C         3.440787         0.466937        -0.171720
 C         4.251890        -0.056946        -1.335371
 O         3.301997        -1.163317        -1.480781
 C         2.834286        -0.984269        -0.062341
 C         3.380190         1.110439         1.127602
 O         1.956948         0.558267         1.527336
 H        -0.741652        -0.160244         0.454589
 H        -0.052189        -1.390323        -0.329231
 H         0.103589        -1.485729         1.327463
 H         1.788490         0.757355        -1.868252
 H         1.712042         1.963697        -0.449095
 H         4.250473         0.514423        -2.299174
 H         5.226634        -0.581222        -1.033568
 H         3.204279        -1.801486         0.569753
 H         4.001568         0.803568         1.949471
 H         3.334691         2.140544         1.078014
