19
Iteration:  3676charge 0 multiplicity 1
 C         0.020899        -0.635082         0.414752
 C         1.529054        -0.149992         0.305074
 C         1.982079         0.909396        -0.677677
 C         3.381699         0.518533        -0.221308
 C         4.291502         0.068789        -1.425393
 O         3.220084        -1.042213        -1.587079
 C         2.875176        -0.944650        -0.121048
 C         3.376042         0.856465         1.274345
 O         2.083247         0.324353         1.654892
 H        -0.821447         0.027540        -0.020876
 H         0.203286        -1.715597        -0.084329
 H        -0.335182        -0.765709         1.563780
 H         1.747978         0.758333        -1.656977
 H         1.631115         1.943486        -0.368429
 H         4.406199         0.612142        -2.334319
 H         5.239988        -0.301378        -0.999230
 H         3.226293        -1.731693         0.556688
 H         4.180471         0.454634         1.762282
 H         3.344485         1.897888         1.465367
