19
Iteration:   304charge 0 multiplicity 1
 C         0.197499        -0.840076         0.657379
 C         1.508513        -0.158944         0.237440
 C         2.072085        -0.604602        -1.120020
 C         3.305618         0.310478        -0.657196
 C         4.610795        -0.444828        -0.415472
 O         4.008336        -1.276045         0.573575
 C         2.988109        -0.158098         0.782113
 C         2.657921         1.721533        -0.468002
 O         1.365489         1.268128        -0.013114
 H         0.464103        -1.866781         0.677283
 H        -0.251210        -0.541031         1.637804
 H        -0.501600        -0.690373        -0.165467
 H         2.506840        -1.625632        -1.183146
 H         1.565352        -0.272430        -2.016893
 H         5.048476        -1.034260        -1.275905
 H         5.298667         0.237355         0.036162
 H         3.291765         0.334428         1.752380
 H         3.272531         2.404212         0.160651
 H         2.390473         2.473948        -1.213548
