19
Iteration:  3524charge 0 multiplicity 1
 C         0.169481        -0.710480         0.488216
 C         1.477169        -0.127279         0.208261
 C         1.912244         1.027616        -0.711037
 C         3.371974         0.575953        -0.231704
 C         4.270122         0.057298        -1.345604
 O         3.288219        -1.211797        -1.426486
 C         2.772036        -0.889810        -0.124834
 C         3.396497         0.880830         1.252312
 O         2.056718         0.356702         1.474590
 H         0.286441        -1.748921         0.872603
 H        -0.317792        -0.213550         1.178341
 H        -0.416145        -0.746063        -0.436625
 H         1.698571         0.691377        -1.710973
 H         1.581337         2.136992        -0.385063
 H         4.309846         0.525437        -2.345396
 H         5.324398        -0.280458        -1.072682
 H         3.159364        -1.572492         0.668097
 H         4.178620         0.279392         1.914360
 H         3.393938         2.014279         1.670664
