19
Iteration:  4701charge 0 multiplicity 1
 C         0.205308        -0.724428         0.393411
 C         1.556845        -0.220505         0.287650
 C         2.009625         1.031148        -0.610466
 C         3.408235         0.546487        -0.102876
 C         4.230158        -0.027545        -1.374702
 O         3.150314        -1.018915        -1.645560
 C         2.774046        -0.941877        -0.235657
 C         3.430311         0.871969         1.296823
 O         2.017551         0.393455         1.640674
 H        -0.083606        -1.385796        -0.473352
 H         0.020163        -1.436205         1.326506
 H        -0.572118         0.139977         0.658573
 H         1.759458         0.995304        -1.719401
 H         1.612221         1.949757        -0.382023
 H         4.391686         0.534487        -2.316966
 H         5.125053        -0.459574        -1.026153
 H         3.135497        -1.843732         0.455534
 H         4.195908         0.284599         1.802077
 H         3.505558         1.985255         1.456724
