19
Iteration:   542charge 0 multiplicity 1
 C         0.240919        -0.886024         0.727211
 C         1.450317        -0.218735         0.053905
 C         2.093849        -0.416647        -1.302424
 C         3.312429         0.393105        -0.577341
 C         4.628287        -0.393755        -0.493955
 O         3.919734        -1.405224         0.472675
 C         2.871646        -0.330951         0.709278
 C         2.715144         1.775587        -0.348553
 O         1.476763         1.327586         0.282874
 H         0.528486        -1.291577         1.708933
 H        -0.580424        -0.051364         0.792071
 H        -0.157949        -1.751914         0.148481
 H         2.371496        -1.450862        -1.460896
 H         1.624998         0.203801        -2.116689
 H         4.915777        -0.948739        -1.434920
 H         5.536689         0.135811        -0.144974
 H         3.044485         0.001810         1.779585
 H         3.369014         2.342005         0.311491
 H         2.406018         2.179907        -1.313840
