19
Iteration:  1193
 C         0.275672        -0.830001         0.565802
 C         1.538207        -0.177541         0.199178
 C         1.958197        -0.000243        -1.239391
 C         3.325540         0.463463        -0.489402
 C         4.532234        -0.424688        -0.818867
 O         3.728095        -1.556552        -0.184284
 C         2.985061        -0.532805         0.506279
 C         2.955486         1.697337         0.268428
 O         1.489825         1.246372         0.734583
 H        -0.214947        -1.109140        -0.385036
 H         0.327453        -1.762975         1.158638
 H        -0.512398        -0.205963         1.066457
 H         1.936853        -1.027379        -1.805665
 H         1.389177         0.728587        -1.774826
 H         4.913493        -0.672364        -1.850645
 H         5.371051        -0.357775        -0.015404
 H         3.239286        -0.351415         1.633471
 H         3.546246         1.881909         1.154421
 H         2.824929         2.684217        -0.322249
