19
Iteration:  1158
 C         0.235245        -0.837245         0.641744
 C         1.494941        -0.185677         0.118014
 C         2.025504         0.084242        -1.284265
 C         3.295498         0.426203        -0.428004
 C         4.493423        -0.393952        -0.762077
 O         3.807924        -1.594792        -0.115246
 C         2.888994        -0.630436         0.494331
 C         2.871191         1.759491         0.157092
 O         1.611231         1.198300         0.742092
 H        -0.639186        -0.235326         0.292967
 H         0.181752        -1.857546         0.205009
 H         0.269610        -0.879632         1.713082
 H         2.129497        -0.800685        -1.911815
 H         1.611545         0.985729        -1.820211
 H         4.781517        -0.409710        -1.859477
 H         5.386137        -0.030087        -0.157632
 H         2.874144        -0.609200         1.620831
 H         3.548885         2.238506         0.938287
 H         2.647899         2.452764        -0.719280
