19
Iteration:  3538charge 0 multiplicity 1
 C         0.194343        -0.628205         0.515154
 C         1.561933        -0.111694         0.240068
 C         1.979907         0.977984        -0.747060
 C         3.342189         0.565771        -0.241484
 C         4.180469         0.023721        -1.397795
 O         3.354786        -1.165962        -1.452698
 C         2.855043        -0.859605        -0.156879
 C         3.294567         0.833564         1.245312
 O         1.963740         0.308368         1.602784
 H         0.293095        -1.497192         1.201440
 H        -0.348766         0.240778         0.906810
 H        -0.365468        -0.990746        -0.305366
 H         1.906464         0.693281        -1.840029
 H         1.573864         1.975332        -0.700470
 H         4.163579         0.650096        -2.354733
 H         5.228573        -0.270638        -1.111251
 H         3.165541        -1.570093         0.638578
 H         4.122320         0.187461         1.719562
 H         3.414740         1.857431         1.512952
