19
Iteration:  2488charge 0 multiplicity 1
 C         0.016915        -0.791892         0.513299
 C         1.443322        -0.169937         0.276464
 C         1.951221         0.800254        -0.901156
 C         3.377600         0.471691        -0.303263
 C         4.379780        -0.242297        -1.199590
 O         3.572492        -1.471579        -1.082272
 C         2.901805        -0.904632         0.114533
 C         3.129186         1.454878         0.816112
 O         1.960570         0.721757         1.375068
 H        -0.063294        -1.851315         0.340463
 H        -0.142008        -0.566916         1.464092
 H        -0.652348        -0.273099        -0.095595
 H         1.766980         0.374138        -1.893585
 H         1.776050         1.982177        -0.943352
 H         4.491143         0.166047        -2.182659
 H         5.332212        -0.553410        -0.785858
 H         3.070580        -1.540950         1.031223
 H         3.682444         1.493815         1.727576
 H         2.972738         2.520780         0.419082
