19
Iteration:   762charge 0 multiplicity 1
 C         0.215060        -0.835321         0.622574
 C         1.451055        -0.175235         0.139293
 C         1.969665        -0.325485        -1.263923
 C         3.316878         0.429739        -0.628317
 C         4.609645        -0.452588        -0.581130
 O         3.935670        -1.450782         0.203049
 C         2.878769        -0.434377         0.697568
 C         2.843136         1.777327        -0.129750
 O         1.500406         1.292779         0.463462
 H        -0.397578        -0.024111         1.036738
 H        -0.335618        -1.292923        -0.213821
 H         0.426074        -1.521355         1.460687
 H         2.095562        -1.323190        -1.671602
 H         1.503254         0.286171        -1.994431
 H         5.018193        -0.811935        -1.541768
 H         5.390167         0.014677        -0.019288
 H         3.141898        -0.216883         1.762199
 H         3.478002         2.127071         0.648942
 H         2.448574         2.674428        -0.836003
