19
Iteration:  2134
 C         0.234468        -0.711963         0.540443
 C         1.563868        -0.146434         0.154267
 C         1.931927         0.545274        -1.135707
 C         3.411953         0.581507        -0.360905
 C         4.336752        -0.293428        -1.156651
 O         3.482982        -1.476025        -0.831452
 C         2.996925        -0.791973         0.279615
 C         3.071613         1.450925         0.906885
 O         1.777753         0.770306         1.173884
 H        -0.099474        -1.188289        -0.319885
 H         0.328990        -1.399109         1.391312
 H        -0.521082         0.017076         0.825561
 H         1.972250        -0.047330        -2.071771
 H         1.447311         1.587880        -1.369821
 H         4.387887        -0.252956        -2.284453
 H         5.319504        -0.501099        -0.705714
 H         3.071167        -1.211834         1.373691
 H         3.765543         1.302530         1.722382
 H         2.742223         2.555558         0.786179
