19
Iteration:  4405charge 0 multiplicity 1
 C         0.140709        -0.797873         0.483420
 C         1.466616        -0.051606         0.215565
 C         2.048132         1.148826        -0.588668
 C         3.370182         0.506209        -0.188590
 C         4.165280        -0.000840        -1.397922
 O         3.316302        -1.126431        -1.538405
 C         2.702047        -0.929445        -0.214218
 C         3.437160         0.812766         1.295888
 O         2.031728         0.364325         1.567317
 H        -0.377592        -0.909455        -0.437897
 H         0.333818        -1.809845         0.861987
 H        -0.513055        -0.332111         1.141624
 H         1.941315         1.095921        -1.843670
 H         1.816860         2.108834        -0.109555
 H         4.177744         0.639805        -2.322911
 H         5.204664        -0.237431        -1.116796
 H         3.183500        -1.609943         0.342371
 H         4.259938         0.288567         1.732640
 H         3.591734         1.878120         1.577641
