19
Iteration:  3794charge 0 multiplicity 1
 C         0.062292        -0.745348         0.387756
 C         1.524314        -0.122253         0.294046
 C         2.029429         1.016810        -0.447544
 C         3.443477         0.451519        -0.143670
 C         4.215505        -0.051990        -1.425714
 O         3.177796        -1.000714        -1.627465
 C         2.798792        -0.906166        -0.237898
 C         3.402504         1.000089         1.279021
 O         2.097093         0.292482         1.592167
 H         0.011641        -1.666049        -0.077455
 H        -0.013089        -0.935220         1.474036
 H        -0.699944        -0.270301        -0.198485
 H         1.746457         0.801397        -1.549304
 H         1.842601         2.121263        -0.188076
 H         4.355844         0.547624        -2.367343
 H         5.228663        -0.537120        -1.183711
 H         3.033033        -1.888749         0.173153
 H         4.219236         0.552152         2.077885
 H         3.313496         2.072987         1.486145
