19
Iteration:  1875charge 0 multiplicity 1
 C         0.124014        -0.767170         0.516109
 C         1.487698        -0.174694         0.198314
 C         1.951266         0.494519        -1.127503
 C         3.277566         0.517695        -0.407634
 C         4.367657        -0.282054        -1.098745
 O         3.720109        -1.576938        -0.628419
 C         2.899227        -0.838097         0.342571
 C         3.015050         1.559693         0.596521
 O         1.845594         0.949045         1.151207
 H        -0.265449        -1.476171        -0.224754
 H         0.191034        -1.312813         1.494031
 H        -0.605567         0.048795         0.759204
 H         1.938809        -0.163951        -1.955256
 H         1.542310         1.526038        -1.368194
 H         4.597945        -0.271671        -2.129894
 H         5.331962        -0.271547        -0.602922
 H         3.327018        -1.121889         1.292686
 H         3.793146         1.583809         1.442037
 H         2.786881         2.564225         0.259956
