19
Iteration:  2848charge 0 multiplicity 1
 C         0.202103        -0.747274         0.564109
 C         1.493194        -0.068981         0.194687
 C         1.955893         0.794474        -1.024206
 C         3.387071         0.600743        -0.269084
 C         4.297963        -0.190109        -1.264819
 O         3.416831        -1.368795        -1.238305
 C         2.873556        -0.840439         0.083757
 C         3.212971         1.180929         1.142231
 O         1.898201         0.580483         1.400770
 H         0.367364        -1.870755         0.569344
 H        -0.152168        -0.240985         1.496732
 H        -0.622142        -0.578288        -0.160281
 H         1.883541         0.324060        -1.936713
 H         1.507009         1.678566        -0.985594
 H         4.323048         0.309596        -2.211777
 H         5.287877        -0.462743        -0.968142
 H         3.326445        -1.344328         0.974426
 H         4.027459         0.882099         1.881746
 H         3.090573         2.338990         1.176334
