19
Iteration:  2293
 C         0.282826        -0.773333         0.475802
 C         1.547861        -0.078706         0.229304
 C         1.940343         0.558582        -1.079241
 C         3.318805         0.592201        -0.413531
 C         4.345128        -0.285393        -1.143169
 O         3.428833        -1.443202        -0.971841
 C         2.896029        -0.800696         0.202265
 C         3.140805         1.381571         0.928345
 O         1.833453         0.776213         1.339064
 H        -0.380112        -0.093134         1.186685
 H        -0.258383        -0.833550        -0.473928
 H         0.469964        -1.788119         0.914508
 H         1.857924         0.050325        -1.957051
 H         1.570529         1.572598        -1.239629
 H         4.523496        -0.058452        -2.204254
 H         5.316215        -0.562951        -0.588640
 H         3.192742        -1.228435         1.170448
 H         3.982898         1.139347         1.653542
 H         3.016577         2.522862         0.828000
