19
Iteration:   496charge 0 multiplicity 1
 C         0.209058        -0.722357         0.644052
 C         1.524028        -0.214935         0.200714
 C         2.079293        -0.484183        -1.191896
 C         3.287306         0.318795        -0.511395
 C         4.618674        -0.415127        -0.520210
 O         4.078672        -1.410949         0.408898
 C         2.945397        -0.367795         0.784091
 C         2.621897         1.793700        -0.374287
 O         1.371832         1.309975         0.146544
 H         0.252578        -1.845363         0.432126
 H         0.108253        -0.454926         1.728140
 H        -0.608641        -0.275936         0.005480
 H         2.258157        -1.607095        -1.297207
 H         1.499781         0.043485        -2.005235
 H         5.008607        -0.615675        -1.511302
 H         5.416055         0.078701         0.069496
 H         3.083730         0.055463         1.808467
 H         3.002775         2.279505         0.470718
 H         2.500991         2.253726        -1.388382
