19
Iteration:  4562charge 0 multiplicity 1
 C         0.087569        -0.740127         0.440184
 C         1.569128        -0.158474         0.285853
 C         2.002934         1.050224        -0.546236
 C         3.394281         0.505468        -0.196002
 C         4.273814        -0.079356        -1.327778
 O         3.191239        -1.009754        -1.688986
 C         2.777677        -0.927571        -0.112855
 C         3.323782         0.929661         1.234996
 O         2.091985         0.315450         1.595876
 H        -0.365803        -0.592386        -0.474190
 H         0.061404        -1.770109         0.621330
 H        -0.395434        -0.270388         1.299458
 H         1.859125         1.074552        -1.747916
 H         1.788444         2.140163        -0.267912
 H         4.519185         0.564364        -2.200449
 H         5.140713        -0.748325        -1.026321
 H         3.236534        -1.627566         0.419599
 H         4.203227         0.538588         1.821286
 H         3.419856         2.016759         1.259691
