19
Iteration:  4659charge 0 multiplicity 1
 C         0.133980        -0.677737         0.451085
 C         1.525377        -0.090032         0.272087
 C         1.995159         1.095439        -0.544703
 C         3.375884         0.502628        -0.269162
 C         4.224917         0.033363        -1.356820
 O         3.240501        -1.070279        -1.551219
 C         2.794052        -0.946086        -0.220293
 C         3.435842         0.888697         1.207471
 O         2.030917         0.203922         1.628332
 H        -0.026523        -1.424934        -0.287370
 H        -0.077299        -1.075620         1.456250
 H        -0.620018         0.182579         0.369877
 H         1.901920         0.877127        -1.715665
 H         1.664524         2.091947        -0.320908
 H         4.342276         0.655124        -2.294787
 H         5.267893        -0.389506        -1.108301
 H         3.156226        -1.928384         0.412457
 H         4.196866         0.387513         1.875564
 H         3.181160         1.982520         1.457397
