19
Iteration:  2665charge 0 multiplicity 1
 C         0.075969        -0.725791         0.531892
 C         1.467282        -0.154988         0.237368
 C         1.919029         0.757904        -0.941324
 C         3.393634         0.593409        -0.308008
 C         4.396598        -0.264760        -1.303049
 O         3.573240        -1.411989        -1.061750
 C         2.823301        -0.856019         0.079893
 C         3.156316         1.350547         0.970363
 O         1.915275         0.615671         1.382590
 H        -0.164272        -0.168372         1.363060
 H        -0.674875        -0.603550        -0.222032
 H         0.144780        -1.763041         0.756803
 H         1.825461         0.209702        -2.014656
 H         1.485102         1.835059        -1.089594
 H         4.478375         0.104814        -2.366921
 H         5.442619        -0.475239        -0.891832
 H         3.131461        -1.243338         1.067718
 H         3.924674         1.176613         1.684126
 H         2.963400         2.436711         0.936586
