19
Iteration:  4746
 C         0.138408        -0.659996         0.464707
 C         1.491769        -0.116493         0.211670
 C         1.955096         1.046941        -0.633691
 C         3.379128         0.607800        -0.202189
 C         4.173740         0.010199        -1.402280
 O         3.378476        -1.167310        -1.530886
 C         2.698760        -0.842642        -0.251610
 C         3.421571         0.827430         1.287555
 O         2.100898         0.224102         1.630394
 H        -0.516371        -0.720665        -0.437606
 H        -0.155526        -1.694675         0.937716
 H        -0.364960         0.043476         1.308685
 H         1.752655         0.943949        -1.732606
 H         1.697412         2.027058        -0.501288
 H         4.153345         0.791178        -2.176638
 H         5.121825        -0.147224        -1.025251
 H         2.999553        -1.620971         0.615101
 H         4.281766         0.246784         1.662589
 H         3.418217         1.911351         1.618879
