19
Iteration:  4489
 C         0.047965        -0.807432        -0.256416
 C         1.310475        -0.003364        -0.111525
 C         1.863369         1.253555        -0.906519
 C         3.188519         0.786840        -0.302075
 C         4.177053         0.535487        -1.552709
 O         3.425454        -0.666808        -1.808746
 C         2.750517        -0.681338        -0.422324
 O         3.011086         1.054548         1.085288
 C         1.665831         0.570854         1.307948
 H        -0.696744        -0.299501         0.323080
 H        -0.030745        -0.856698        -1.327817
 H         0.233964        -1.881749        -0.017794
 H         1.779104         1.004980        -2.009631
 H         1.565750         2.167233        -0.575035
 H         4.058513         1.280387        -2.435827
 H         5.205203         0.334431        -1.340238
 H         3.073487        -1.562530         0.033157
 H         1.577501        -0.216795         2.140580
 H         0.959002         1.390102         1.545961
