19
Iteration:  4940
 C         0.026759        -0.751090        -0.262445
 C         1.370475        -0.059586        -0.096725
 C         1.841302         1.199003        -0.916079
 C         3.220242         0.793141        -0.280321
 C         4.182426         0.593311        -1.518779
 O         3.360738        -0.720075        -1.838376
 C         2.777154        -0.700875        -0.501338
 O         3.036787         1.115712         1.156291
 C         1.691764         0.510604         1.287267
 H        -0.808657        -0.035687        -0.300656
 H         0.081363        -1.041000        -1.336867
 H        -0.148081        -1.537420         0.478071
 H         1.866737         1.078398        -2.008832
 H         1.336328         2.194116        -0.659349
 H         3.975889         1.488386        -2.207833
 H         5.291857         0.395818        -1.494836
 H         2.918295        -1.650943         0.097288
 H         1.728210        -0.068589         2.200213
 H         0.834599         1.246696         1.446383
