19
Iteration:  3038charge 0 multiplicity 1
 C        -0.083130        -0.699842        -0.162549
 C         1.321844        -0.085419        -0.121605
 C         1.841460         1.136245        -0.939218
 C         3.183803         0.723753        -0.293893
 C         4.266460         0.573725        -1.399363
 O         3.397967        -0.573238        -1.816159
 C         2.818126        -0.721114        -0.548313
 O         3.019632         1.111978         1.033780
 C         1.702378         0.504482         1.240573
 H        -0.639925         0.004698         0.406309
 H        -0.457466        -0.807358        -1.192477
 H         0.006145        -1.726600         0.170746
 H         1.766856         0.884641        -2.049916
 H         1.280177         2.147974        -0.743530
 H         4.176784         1.400954        -2.108897
 H         5.253146         0.325592        -1.218712
 H         3.390420        -1.433124         0.099833
 H         1.807621        -0.330524         2.008935
 H         0.879365         1.151289         1.670042
