19
Iteration:  3956
 C        -0.016135        -0.634604        -0.184801
 C         1.360359        -0.094298        -0.153486
 C         1.803092         1.059489        -0.986771
 C         3.218766         0.789734        -0.293123
 C         4.262081         0.559361        -1.376478
 O         3.412130        -0.610067        -1.849676
 C         2.687627        -0.670282        -0.489127
 O         2.940003         1.213152         1.061506
 C         1.788491         0.397893         1.280079
 H        -0.779618        -0.146711         0.454748
 H        -0.366363        -0.647381        -1.264330
 H        -0.066421        -1.778568        -0.025539
 H         1.831138         1.005811        -2.008981
 H         1.400952         2.057829        -0.827544
 H         4.453784         1.422098        -2.087297
 H         5.266951         0.063951        -1.149810
 H         3.081505        -1.515277         0.085755
 H         1.981466        -0.558929         1.883137
 H         1.063266         0.985756         1.827897
