19
Iteration:   934charge 0 multiplicity 1
 C        -0.043936        -0.742657        -0.328387
 C         1.302979        -0.070047        -0.103341
 C         1.746442         1.354835        -0.721617
 C         3.078591         0.897782        -0.402699
 C         4.187784         0.480318        -1.352543
 O         3.375503        -0.537594        -1.899552
 C         2.666293        -0.610727        -0.614415
 O         3.119641         1.048757         1.048121
 C         1.923140         0.174215         1.338294
 H        -0.825085        -0.603059         0.424771
 H        -0.512923        -0.478676        -1.309801
 H         0.189867        -1.757806        -0.362272
 H         1.669392         1.375854        -1.789779
 H         1.568009         2.282622        -0.272578
 H         4.456969         1.251562        -2.184459
 H         5.024196         0.357107        -0.628144
 H         3.209210        -1.387074        -0.018287
 H         2.450392        -0.520477         1.973965
 H         1.262046         0.916931         1.832399
