19
Iteration:  3537charge 0 multiplicity 1
 C        -0.045879        -0.695622        -0.358042
 C         1.386121        -0.138282        -0.051943
 C         1.705830         1.084300        -0.935405
 C         3.192857         0.799125        -0.342678
 C         4.276012         0.468087        -1.317188
 O         3.261172        -0.589512        -1.843937
 C         2.803702        -0.654282        -0.503308
 O         3.026090         1.239858         1.049297
 C         1.854938         0.466859         1.328590
 H        -0.665542         0.148327        -0.467906
 H         0.094574        -1.208105        -1.298375
 H        -0.556634        -1.418243         0.226550
 H         1.612386         0.814747        -1.962071
 H         1.350904         2.150066        -0.788893
 H         4.437150         1.237148        -2.136062
 H         5.145307        -0.088795        -0.890058
 H         3.309057        -1.419972         0.095341
 H         2.121761        -0.315266         2.087770
 H         1.221659         1.157296         1.841640
