19
Iteration:  2524charge 0 multiplicity 1
 C        -0.056279        -0.702211        -0.215263
 C         1.300626        -0.050287        -0.179624
 C         1.735846         1.173685        -0.974577
 C         3.210749         0.761921        -0.375398
 C         4.328205         0.471579        -1.308889
 O         3.369920        -0.572955        -1.795555
 C         2.737208        -0.633259        -0.481961
 O         2.981228         1.231420         0.970017
 C         1.841427         0.359947         1.297782
 H        -0.812605        -0.247685         0.455128
 H        -0.389279        -0.822346        -1.256027
 H         0.101220        -1.746689         0.074916
 H         1.582112         1.033860        -1.980533
 H         1.357185         2.062880        -0.589868
 H         4.752224         1.090158        -2.169456
 H         4.975706        -0.058602        -0.690381
 H         3.226767        -1.443685         0.125633
 H         2.033651        -0.463361         2.003365
 H         1.132792         0.913822         1.916227
