19
Iteration:  2234
 C        -0.092521        -0.681546        -0.124707
 C         1.286613        -0.088817        -0.157916
 C         1.642134         1.198608        -0.964550
 C         3.206079         0.752044        -0.300845
 C         4.243360         0.590756        -1.398659
 O         3.511631        -0.616678        -1.863017
 C         2.778236        -0.657659        -0.496638
 O         3.116638         1.084182         1.059344
 C         1.724956         0.429148         1.266708
 H        -0.795270         0.135462        -0.439790
 H        -0.190375        -1.322970        -1.080781
 H        -0.564593        -1.347516         0.712562
 H         1.778304         0.949277        -1.974940
 H         1.242767         2.155104        -0.786027
 H         4.356769         1.345919        -2.210088
 H         5.357541         0.215740        -1.168716
 H         3.155454        -1.562180         0.074000
 H         1.875797        -0.365068         2.082611
 H         1.025702         1.225403         1.602386
