19
Iteration:  4675
 C        -0.041389        -0.738204        -0.257163
 C         1.325611        -0.051806        -0.056416
 C         1.742918         1.227724        -0.982387
 C         3.192735         0.798301        -0.324467
 C         4.302128         0.390365        -1.380695
 O         3.372073        -0.618139        -1.894980
 C         2.750969        -0.670308        -0.443732
 O         2.966993         1.271505         1.054676
 C         1.846714         0.414137         1.325351
 H        -0.867849        -0.292356         0.274255
 H        -0.223710        -0.819658        -1.326909
 H        -0.125607        -1.865546        -0.026407
 H         1.713495         0.992845        -2.062840
 H         1.527304         2.226984        -0.788699
 H         4.476019         1.134264        -2.234407
 H         5.181332        -0.028188        -0.991992
 H         3.257827        -1.404713         0.201689
 H         1.835973        -0.567824         1.862837
 H         1.115754         1.156539         1.804773
