19
Iteration:  2794
 C        -0.001308        -0.821735        -0.301223
 C         1.377193        -0.040205        -0.103056
 C         1.818387         1.171207        -0.917853
 C         3.208479         0.786564        -0.280102
 C         4.194166         0.578857        -1.437201
 O         3.304848        -0.626344        -1.874119
 C         2.732699        -0.662346        -0.497521
 O         3.120973         1.156799         1.168507
 C         1.689190         0.483128         1.264909
 H        -0.797078        -0.172149        -0.520449
 H         0.126782        -1.444245        -1.179247
 H        -0.196389        -1.369464         0.661100
 H         1.695019         0.957339        -1.971301
 H         1.299335         2.258261        -0.798764
 H         4.425742         1.415339        -2.039872
 H         5.117048        -0.011408        -1.135805
 H         3.222615        -1.550467        -0.066866
 H         1.867404        -0.331043         1.935387
 H         0.955044         1.238580         1.507726
