19
Iteration:  1343charge 0 multiplicity 1
 C        -0.090593        -0.709434        -0.185020
 C         1.317798        -0.077049        -0.191683
 C         1.745068         1.202721        -0.863479
 C         3.210530         0.796165        -0.306302
 C         4.241308         0.618584        -1.467290
 O         3.419775        -0.539902        -1.873096
 C         2.792829        -0.642870        -0.475330
 O         3.147033         0.945202         1.092834
 C         1.662702         0.403367         1.266089
 H        -0.197522        -1.533607        -0.948960
 H        -0.348382        -1.206201         0.854746
 H        -0.953045         0.048564        -0.408441
 H         1.711911         0.984076        -1.907725
 H         1.340486         2.139804        -0.642332
 H         4.159697         1.477209        -2.279010
 H         5.296444         0.479204        -1.401963
 H         3.338901        -1.422946         0.055074
 H         1.600431        -0.391959         2.005912
 H         1.186949         1.259109         1.665288
