19
Iteration:  3326
 C        -0.070400        -0.615229        -0.162215
 C         1.390339        -0.128291        -0.180026
 C         1.772055         1.050187        -1.045312
 C         3.148879         0.820109        -0.384002
 C         4.299323         0.402865        -1.339399
 O         3.410083        -0.548091        -1.897892
 C         2.792956        -0.621807        -0.447883
 O         2.975515         1.237541         1.059034
 C         1.753258         0.394390         1.339854
 H        -0.679758         0.295850        -0.131807
 H        -0.196597        -1.355012        -0.931901
 H        -0.265113        -1.157277         0.756975
 H         1.590720         1.040772        -2.251786
 H         1.473761         1.981838        -0.484110
 H         4.510242         1.304007        -2.151816
 H         5.116386        -0.173359        -0.869617
 H         3.129977        -1.542508         0.106478
 H         2.016808        -0.535246         1.964031
 H         0.852020         0.910614         1.868212
