19
Iteration:  1717charge 0 multiplicity 1
 C         0.009798        -0.691344        -0.360500
 C         1.372258        -0.110286        -0.146455
 C         1.811285         1.167927        -0.891190
 C         3.164849         0.833449        -0.314948
 C         4.234257         0.477198        -1.366432
 O         3.323061        -0.643234        -1.904411
 C         2.749548        -0.644025        -0.483081
 O         3.017386         1.190975         1.080909
 C         1.792129         0.434444         1.374454
 H        -0.811795        -0.219638        -0.919943
 H         0.094955        -1.714773        -0.522674
 H        -0.502423        -0.689457         0.589828
 H         1.605491         1.034703        -1.964525
 H         1.365068         2.124596        -0.452134
 H         4.425856         1.189050        -2.304902
 H         5.158863         0.134291        -1.052626
 H         3.258265        -1.478069        -0.036137
 H         2.098336        -0.402904         2.121319
 H         1.003970         1.073470         1.805340
