19
Iteration:  3868charge 0 multiplicity 1
 C         0.025075        -0.820665        -0.305791
 C         1.375484        -0.055184        -0.200045
 C         1.759751         1.283860        -0.884757
 C         3.177332         0.873363        -0.314186
 C         4.238986         0.418314        -1.364753
 O         3.311005        -0.586415        -1.778446
 C         2.722395        -0.722263        -0.476486
 O         3.022939         1.263400         1.028321
 C         1.817493         0.379989         1.262542
 H        -0.846766        -0.103795        -0.354545
 H        -0.044401        -1.516284        -1.240897
 H        -0.101136        -1.462531         0.661814
 H         1.689872         1.238324        -1.995576
 H         1.589446         2.268803        -0.476310
 H         4.291636         1.128644        -2.140874
 H         5.072269        -0.127343        -0.934682
 H         3.153498        -1.620178        -0.054477
 H         2.119492        -0.410286         1.978468
 H         1.085691         0.914550         1.791722
