19
Iteration:  4140charge 0 multiplicity 1
 C        -0.013572        -0.720253        -0.216537
 C         1.353945        -0.121270        -0.168694
 C         1.845039         1.197651        -0.901000
 C         3.217663         0.716839        -0.330806
 C         4.234370         0.489631        -1.436008
 O         3.355608        -0.554831        -1.859689
 C         2.816329        -0.720995        -0.448204
 O         2.947798         1.174054         1.080844
 C         1.728713         0.490482         1.247494
 H        -0.485715        -0.098405         0.491551
 H        -0.504352        -0.673511        -1.181089
 H        -0.011488        -1.732403         0.126252
 H         1.732183         1.151753        -1.957809
 H         1.487623         2.213502        -0.542194
 H         4.451357         1.440590        -1.991556
 H         5.103965         0.037592        -1.129489
 H         3.250865        -1.647544         0.060510
 H         1.781103        -0.278025         2.005054
 H         0.902701         1.115025         1.455187
