19
Iteration:  3403charge 0 multiplicity 1
 C         0.054877        -0.745761        -0.360481
 C         1.319919        -0.023959        -0.090179
 C         1.809508         1.227223        -0.972470
 C         3.155637         0.823129        -0.405580
 C         4.134867         0.426792        -1.442982
 O         3.375866        -0.713509        -1.788282
 C         2.762515        -0.615819        -0.433510
 O         3.070693         1.191236         1.101700
 C         1.733504         0.431372         1.335857
 H        -0.642072        -0.133673         0.208850
 H        -0.201854        -0.695928        -1.393386
 H         0.199629        -1.687925         0.101031
 H         1.512066         0.956272        -2.037791
 H         1.587213         2.213265        -0.591803
 H         4.295220         1.154712        -2.399566
 H         5.084074         0.151844        -0.928736
 H         3.242263        -1.243882         0.363327
 H         1.913695        -0.336865         2.123179
 H         0.967828         1.122101         1.804153
