19
Iteration:  2060
 C        -0.050232        -0.725173        -0.244644
 C         1.318933        -0.083657        -0.195031
 C         1.766649         1.245113        -0.856126
 C         3.095689         0.884964        -0.397180
 C         4.266337         0.562015        -1.336107
 O         3.434804        -0.710228        -1.782025
 C         2.716580        -0.683321        -0.514204
 O         3.089004         1.122814         0.997856
 C         1.784472         0.401498         1.256610
 H        -0.898842        -0.128964         0.033078
 H        -0.365110        -1.239672        -1.193445
 H        -0.037327        -1.555500         0.519938
 H         1.639364         1.130041        -1.965622
 H         1.343080         2.349885        -0.504618
 H         4.341201         1.399299        -2.199641
 H         5.236128         0.337748        -0.855409
 H         3.230559        -1.222890         0.312437
 H         2.064029        -0.463403         1.859715
 H         1.041494         0.992426         1.806840
