19
Iteration:  2584charge 0 multiplicity 1
 C        -0.099357        -0.728805        -0.166889
 C         1.363387        -0.108980        -0.116576
 C         1.813052         1.207291        -0.953811
 C         3.194932         0.777093        -0.304930
 C         4.185858         0.594821        -1.430389
 O         3.432327        -0.634121        -1.841150
 C         2.800102        -0.647419        -0.467675
 O         3.071042         1.030742         1.019264
 C         1.674013         0.477117         1.279502
 H        -0.843557         0.021724        -0.512183
 H        -0.152148        -1.376259        -1.073138
 H        -0.472030        -1.334184         0.670903
 H         1.839712         1.129199        -2.128604
 H         1.271152         2.213077        -0.683358
 H         4.409406         1.422638        -2.055819
 H         5.241094         0.415397        -0.960172
 H         3.266099        -1.456750         0.107033
 H         1.745204        -0.232657         2.041485
 H         1.214189         1.411493         1.505431
