19
Iteration:  2215charge 0 multiplicity 1
 C        -0.097332        -0.671308        -0.283379
 C         1.328011        -0.143649        -0.045382
 C         1.773989         1.100617        -0.928325
 C         3.150584         0.802878        -0.377883
 C         4.318001         0.525488        -1.377254
 O         3.379340        -0.546884        -1.830886
 C         2.755180        -0.675320        -0.511974
 O         3.036143         1.160736         1.002855
 C         1.837443         0.436695         1.338609
 H        -0.765185         0.081999        -0.528557
 H        -0.231511        -1.397305        -1.081774
 H        -0.313124        -1.188686         0.642114
 H         1.433164         0.963073        -1.955942
 H         1.284544         2.026906        -0.447307
 H         4.470199         1.297103        -2.187092
 H         5.180030         0.121544        -0.927573
 H         3.186066        -1.507183         0.102673
 H         1.983886        -0.383209         1.955415
 H         1.090657         1.083442         1.732916
