19
Iteration:  3222charge 0 multiplicity 1
 C         0.008760        -0.707892        -0.226285
 C         1.379454        -0.065820        -0.111395
 C         1.843602         1.120148        -0.977309
 C         3.199432         0.784211        -0.269627
 C         4.269784         0.446168        -1.347597
 O         3.317710        -0.601585        -1.846932
 C         2.725576        -0.687496        -0.549350
 O         2.954870         1.305412         1.015405
 C         1.771332         0.430680         1.314986
 H        -0.838825        -0.263182         0.325494
 H        -0.437166        -0.873886        -1.235385
 H         0.065352        -1.764272         0.201174
 H         1.689716         1.046446        -2.015068
 H         1.424479         2.057875        -0.704244
 H         4.606957         1.026036        -2.178780
 H         5.230650        -0.074510        -0.915290
 H         3.179353        -1.558667        -0.074524
 H         2.010840        -0.384549         1.994519
 H         1.082062         1.118362         1.735927
