19
Iteration:  3383charge 0 multiplicity 1
 C        -0.031490        -0.794752        -0.265122
 C         1.301169         0.014060        -0.167469
 C         1.704343         1.308341        -0.872087
 C         3.123965         0.815376        -0.359098
 C         4.247018         0.525515        -1.434230
 O         3.468948        -0.768773        -1.729162
 C         2.724759        -0.645658        -0.479930
 O         3.123818         1.050940         1.012951
 C         1.760457         0.532985         1.275960
 H        -0.894319        -0.159751        -0.158335
 H        -0.048958        -1.027235        -1.295466
 H        -0.002257        -1.655605         0.407641
 H         1.788990         1.251830        -1.986141
 H         1.078647         2.165906        -0.485204
 H         4.219867         1.205194        -2.374873
 H         5.298373         0.323117        -1.177143
 H         2.947054        -1.432029         0.241731
 H         1.854021        -0.199848         2.151240
 H         1.071323         1.357410         1.593359
