19
Iteration:  1242
 C        -0.043479        -0.842938        -0.229976
 C         1.288393        -0.064746        -0.114679
 C         1.837397         1.351051        -0.900545
 C         3.178776         0.758985        -0.356322
 C         4.291802         0.570550        -1.413123
 O         3.374723        -0.569064        -1.892781
 C         2.680010        -0.663064        -0.492071
 O         3.067098         0.993603         1.093456
 C         1.745271         0.513380         1.298553
 H        -0.638379        -0.756292        -1.167592
 H         0.232424        -2.012867        -0.299010
 H        -0.577623        -0.761187         0.761241
 H         1.756633         1.282110        -1.986689
 H         1.459471         2.299477        -0.504768
 H         4.375157         1.339810        -2.234282
 H         5.297754         0.154970        -1.061046
 H         3.223308        -1.473477        -0.002648
 H         1.834310        -0.240228         2.078788
 H         0.982727         1.317404         1.534221
