19
Iteration:  3802charge 0 multiplicity 1
 C        -0.104689        -0.765100        -0.178356
 C         1.297181        -0.077179        -0.247419
 C         1.730472         1.311684        -0.949735
 C         3.129483         0.855486        -0.350857
 C         4.212832         0.606052        -1.395817
 O         3.579268        -0.738201        -1.742560
 C         2.695935        -0.690625        -0.489353
 O         3.100047         1.086271         1.047575
 C         1.798237         0.444102         1.216030
 H        -0.669584        -0.140189         0.563688
 H        -0.634402        -0.736647        -1.210990
 H         0.182099        -1.747256         0.326814
 H         1.517777         1.028686        -2.048306
 H         1.317964         2.232371        -0.491501
 H         4.093887         1.368314        -2.085800
 H         5.236368         0.344867        -1.115953
 H         2.809565        -1.510028         0.207235
 H         1.925003        -0.263631         2.044459
 H         1.003557         1.057771         1.504750
