19
Iteration:  1461
 C        -0.116239        -0.753902        -0.228840
 C         1.301120        -0.064759        -0.250686
 C         1.776240         1.217684        -0.922029
 C         3.162175         0.772927        -0.339996
 C         4.184353         0.610952        -1.454077
 O         3.508954        -0.626750        -1.825165
 C         2.650974        -0.686057        -0.529017
 O         3.181840         1.046773         1.182640
 C         1.778650         0.466463         1.301431
 H        -0.663823        -0.559181        -1.105143
 H         0.221956        -1.797931        -0.174244
 H        -0.689727        -0.533590         0.621428
 H         1.524234         1.257733        -2.019860
 H         1.268718         2.277371        -0.630827
 H         4.095835         1.443115        -2.221800
 H         5.247989         0.422323        -1.217524
 H         3.048579        -1.403552         0.207958
 H         1.819828        -0.389580         2.052318
 H         0.990708         1.218599         1.679518
