19
Iteration:  2382charge 0 multiplicity 1
 C        -0.064020        -0.660184        -0.114272
 C         1.365547        -0.078939        -0.164862
 C         1.754407         1.185339        -0.976121
 C         3.112512         0.817441        -0.358458
 C         4.266036         0.585053        -1.334278
 O         3.464225        -0.631091        -1.854631
 C         2.749578        -0.694359        -0.483808
 O         3.058863         1.069853         1.022382
 C         1.762800         0.423497         1.240506
 H        -0.917335         0.062714        -0.210349
 H        -0.270819        -1.298817        -1.004578
 H        -0.221459        -1.339218         0.722894
 H         1.662882         0.948764        -2.075399
 H         1.309032         2.174842        -0.533632
 H         4.262390         1.356356        -2.221291
 H         5.256725         0.398546        -0.872544
 H         3.010075        -1.638656         0.037114
 H         1.898452        -0.331985         1.966758
 H         1.038932         1.132033         1.630823
