19
Iteration:  1490charge 0 multiplicity 1
 C         0.009752        -0.689993        -0.208531
 C         1.358188        -0.061653        -0.102121
 C         1.755697         1.218815        -0.880164
 C         3.123399         0.825947        -0.397110
 C         4.271786         0.497931        -1.374103
 O         3.416487        -0.536420        -1.841317
 C         2.726571        -0.642958        -0.559350
 O         3.025202         1.070306         0.989641
 C         1.756436         0.333358         1.321569
 H        -0.478938        -0.623859        -1.243518
 H         0.202705        -1.734015         0.065176
 H        -0.879068        -0.307946         0.434554
 H         1.436210         0.954449        -1.890816
 H         1.343435         2.238089        -0.611419
 H         4.545350         1.232178        -2.063911
 H         5.149072        -0.017854        -0.836120
 H         3.173295        -1.325952         0.255207
 H         2.090243        -0.438212         2.003949
 H         1.083627         1.126488         1.736554
