19
Iteration:  4284
 C        -0.057427        -0.780205        -0.201967
 C         1.301500        -0.047126        -0.105182
 C         1.745030         1.199583        -0.892477
 C         3.157234         0.773166        -0.399164
 C         4.296612         0.510662        -1.371363
 O         3.535693        -0.594534        -1.891651
 C         2.685859        -0.644533        -0.490953
 O         3.048645         1.049708         1.013271
 C         1.730182         0.539202         1.338992
 H        -0.867854        -0.145342         0.108769
 H        -0.189554        -1.049341        -1.231475
 H        -0.140436        -1.770550         0.363588
 H         1.692516         1.008955        -2.053622
 H         1.239502         2.180170        -0.784304
 H         4.331200         1.349002        -2.093455
 H         5.252585         0.281666        -0.962631
 H         3.064494        -1.540831         0.167583
 H         1.696465        -0.115706         2.209444
 H         1.024783         1.328949         1.623816
