19
Iteration:  3102
 C         0.036577        -0.819891        -0.369741
 C         1.372292        -0.063019        -0.096896
 C         1.671500         1.243583        -0.877435
 C         3.122207         0.853897        -0.374909
 C         4.273206         0.433745        -1.367355
 O         3.344206        -0.646020        -1.842529
 C         2.720397        -0.678399        -0.503347
 O         3.107511         1.206954         1.055144
 C         1.782268         0.513723         1.347919
 H        -0.853229        -0.275358        -0.093178
 H        -0.159170        -0.994290        -1.453603
 H        -0.057074        -1.761788         0.248398
 H         1.438728         1.162672        -1.954472
 H         1.191551         2.176373        -0.696449
 H         4.705679         0.935855        -2.199067
 H         5.031610        -0.037455        -0.607170
 H         3.133986        -1.505060         0.106606
 H         2.187167        -0.288375         2.032602
 H         1.166158         1.235319         1.945417
