19
Iteration:  3416charge 0 multiplicity 1
 C         0.039186        -0.700712        -0.337173
 C         1.396390        -0.041195        -0.137102
 C         1.779512         1.188897        -0.933976
 C         3.181374         0.828396        -0.295250
 C         4.283114         0.461207        -1.442778
 O         3.253028        -0.685024        -1.772928
 C         2.771747        -0.676230        -0.416696
 O         3.014336         1.247848         1.008435
 C         1.752798         0.435138         1.376769
 H        -0.806701        -0.399338         0.211025
 H        -0.231764        -0.749872        -1.352007
 H         0.021870        -1.772965        -0.207297
 H         1.948067         0.997336        -1.983549
 H         1.164687         2.143226        -0.822512
 H         4.452078         1.155050        -2.380872
 H         5.236722        -0.016737        -1.111878
 H         3.157016        -1.542563         0.095024
 H         2.060951        -0.464426         2.020775
 H         1.019633         1.126842         1.834963
