19
Iteration:  3287
 C        -0.017671        -0.747291        -0.264697
 C         1.255707        -0.003449        -0.092557
 C         1.756522         1.213568        -1.003958
 C         3.150301         0.778857        -0.389512
 C         4.217638         0.521287        -1.403386
 O         3.520816        -0.699734        -1.794086
 C         2.623445        -0.647129        -0.403309
 O         3.114214         1.131035         0.973328
 C         1.751097         0.462420         1.348418
 H        -0.959944        -0.212399        -0.009453
 H        -0.127079        -0.793053        -1.379641
 H         0.124999        -1.693095         0.366682
 H         1.524448         1.208130        -2.052548
 H         1.462696         2.076358        -0.441749
 H         4.263899         1.227202        -2.144064
 H         5.250989         0.397420        -0.963730
 H         3.068242        -1.451271         0.166516
 H         1.970654        -0.342850         2.033963
 H         1.173348         1.161654         1.892436
