19
Iteration:   755charge 0 multiplicity 1
 C        -0.046144        -0.713750        -0.237125
 C         1.312060        -0.013986        -0.126621
 C         1.662193         1.292598        -0.734649
 C         3.163489         0.738859        -0.278421
 C         4.145638         0.758009        -1.480757
 O         3.408891        -0.423396        -1.924514
 C         2.676594        -0.618895        -0.622181
 O         3.248867         0.779550         1.111787
 C         1.831517         0.223152         1.284806
 H         0.179177        -1.708666         0.179084
 H        -0.841976        -0.206881         0.388606
 H        -0.252164        -0.825760        -1.269958
 H         1.559670         1.352440        -1.840203
 H         1.329104         2.244641        -0.209156
 H         4.144254         1.553583        -2.165601
 H         5.269223         0.459432        -1.251167
 H         2.840523        -1.618569        -0.268332
 H         1.792744        -0.616712         2.007566
 H         1.271905         1.092090         1.602633
