19
Iteration:  1696charge 0 multiplicity 1
 C        -0.075330        -0.763683        -0.267239
 C         1.372673        -0.093991        -0.089618
 C         1.751931         1.195766        -0.909222
 C         3.172279         0.719417        -0.296686
 C         4.241473         0.567530        -1.439878
 O         3.348139        -0.537495        -1.822498
 C         2.778972        -0.673180        -0.400373
 O         3.126837         1.071033         1.047100
 C         1.732257         0.463145         1.207305
 H        -0.470300        -0.165335        -1.125664
 H        -0.019150        -1.799962        -0.443361
 H        -0.949064        -0.545779         0.411087
 H         1.862625         1.097160        -1.970737
 H         1.500244         2.212680        -0.579960
 H         4.315427         1.279478        -2.409101
 H         5.182927         0.350554        -1.111444
 H         3.088861        -1.473013         0.267371
 H         1.877247        -0.344266         2.012007
 H         1.077342         1.289138         1.539842
