19
Iteration:  3128charge 0 multiplicity 1
 C        -0.017661        -0.757623        -0.277533
 C         1.381785        -0.093619        -0.106569
 C         1.874064         1.115174        -0.977426
 C         3.219500         0.736481        -0.303236
 C         4.181679         0.572996        -1.407892
 O         3.325329        -0.569364        -1.828117
 C         2.728874        -0.709320        -0.379123
 O         3.084172         1.205703         1.038869
 C         1.710189         0.431305         1.260790
 H        -0.688007         0.123383        -0.237599
 H        -0.214758        -1.298927        -1.227662
 H        -0.279236        -1.445441         0.504802
 H         1.635928         1.034830        -2.033956
 H         1.439134         2.179696        -0.790286
 H         4.222042         1.427746        -2.171627
 H         5.124082         0.308519        -1.158235
 H         3.049944        -1.643764         0.109691
 H         1.912515        -0.254666         2.103534
 H         1.062457         1.262741         1.654945
