19
Iteration:   269
 C        -0.086450        -0.614785        -0.179193
 C         1.352717        -0.135443        -0.154695
 C         1.774633         1.328060        -0.547500
 C         3.149335         0.760052        -0.233980
 C         4.144764         0.812721        -1.479102
 O         3.072372        -0.055558        -2.120864
 C         2.779517        -0.597267        -0.795767
 O         3.215342         0.700312         1.182286
 C         2.066842        -0.191243         1.320918
 H        -0.222079        -1.621618         0.261292
 H        -0.902201        -0.013649         0.302512
 H        -0.395704        -0.571274        -1.299879
 H         1.616033         1.576577        -1.627273
 H         1.343936         2.019359         0.344305
 H         4.335177         1.752894        -2.039387
 H         5.093528         0.240644        -1.300602
 H         3.392855        -1.502785        -0.559356
 H         2.340546        -1.263347         1.487791
 H         1.368678         0.148924         2.104736
