19
Iteration:  2489
 C         0.020104        -0.729925        -0.316281
 C         1.351978        -0.025749        -0.140212
 C         1.805986         1.161239        -0.928721
 C         3.141871         0.740028        -0.318393
 C         4.126853         0.580349        -1.437855
 O         3.383134        -0.715230        -1.838684
 C         2.787864        -0.690336        -0.458795
 O         3.067440         1.153059         1.093791
 C         1.742902         0.537451         1.353425
 H        -0.806318        -0.492626         0.347299
 H        -0.334463        -0.496130        -1.375415
 H         0.184794        -1.882944        -0.160049
 H         1.729121         1.199577        -2.023667
 H         1.386779         2.042602        -0.570429
 H         4.424221         1.269861        -2.225670
 H         5.073024         0.212366        -1.079176
 H         3.204020        -1.472985         0.229602
 H         1.897627        -0.253791         2.188080
 H         1.055327         1.410549         1.384380
