19
Iteration:  4820charge 0 multiplicity 1
 C         0.018019        -0.774911        -0.266896
 C         1.323561        -0.075123        -0.124631
 C         1.728710         1.257039        -0.928787
 C         3.122646         0.786165        -0.367551
 C         4.242318         0.580000        -1.416638
 O         3.429172        -0.741288        -1.761956
 C         2.689074        -0.600468        -0.507415
 O         3.136239         1.034503         1.079086
 C         1.749731         0.542706         1.271664
 H        -0.913756        -0.249366         0.042903
 H        -0.122579        -0.891453        -1.383138
 H        -0.037743        -1.743551         0.273776
 H         1.575675         1.090489        -1.920921
 H         1.395682         2.257555        -0.673490
 H         4.207844         1.318983        -2.268290
 H         5.258964         0.336973        -1.091291
 H         3.133137        -1.403600         0.087197
 H         1.657237         0.026610         2.232866
 H         1.070136         1.393090         1.544074
