19
Iteration:  3042charge 0 multiplicity 1
 C        -0.041124        -0.697838        -0.164902
 C         1.330794        -0.088564        -0.173094
 C         1.827010         1.162354        -0.963611
 C         3.178157         0.742992        -0.271178
 C         4.229612         0.536318        -1.403813
 O         3.415468        -0.594884        -1.824759
 C         2.751230        -0.691353        -0.543801
 O         3.051920         1.138725         1.068146
 C         1.681674         0.464377         1.232724
 H        -0.720465        -0.082378         0.559289
 H        -0.423850        -0.874188        -1.182070
 H         0.023275        -1.746603         0.144783
 H         1.886396         0.835798        -1.967154
 H         1.309271         2.090913        -0.616255
 H         4.193160         1.442680        -2.150681
 H         5.343535         0.360210        -1.185680
 H         3.278574        -1.352154         0.140974
 H         1.945274        -0.239195         1.996416
 H         0.952821         1.143721         1.648085
