19
Iteration:   136
 C         0.052697        -0.676927        -0.239931
 C         1.382784        -0.066524        -0.118458
 C         1.579862         1.495924        -0.354029
 C         3.071699         0.849496        -0.241701
 C         4.056197         0.835901        -1.407472
 O         3.144526        -0.088052        -2.178422
 C         2.607889        -0.500353        -0.821419
 O         3.383519         0.479438         1.115065
 C         2.089706        -0.292984         1.255752
 H        -0.153429        -0.617040        -1.359705
 H         0.063302        -1.700636         0.177543
 H        -0.688143        -0.022406         0.228281
 H         1.285382         1.870109        -1.392042
 H         1.300351         2.248376         0.494330
 H         4.327331         1.862836        -1.902848
 H         5.046446         0.374758        -1.215784
 H         3.144978        -1.393728        -0.655806
 H         2.318939        -1.306968         1.459966
 H         1.568461         0.106671         2.128056
