19
Iteration:  3948charge 0 multiplicity 1
 C        -0.053627        -0.682147        -0.208842
 C         1.351381        -0.068884        -0.189624
 C         1.821522         1.094273        -0.981946
 C         3.230752         0.690547        -0.262414
 C         4.209291         0.585639        -1.389940
 O         3.391804        -0.553432        -1.825525
 C         2.749440        -0.743789        -0.468908
 O         2.986606         1.214474         1.059257
 C         1.746354         0.414360         1.245753
 H        -0.603518         0.043339         0.461301
 H        -0.436809        -0.502490        -1.202456
 H        -0.073769        -1.738255         0.274431
 H         1.917014         0.810952        -2.033423
 H         1.242392         2.038799        -0.675656
 H         4.478578         1.301922        -2.079525
 H         5.204758         0.225532        -1.061525
 H         3.295241        -1.555486        -0.041156
 H         2.091262        -0.301850         1.920904
 H         0.920317         1.043814         1.599667
