19
Iteration:  2819charge 0 multiplicity 1
 C        -0.001090        -0.781075        -0.257200
 C         1.380599        -0.157078        -0.131538
 C         1.801304         1.116170        -0.936934
 C         3.137943         0.760285        -0.348601
 C         4.297134         0.535263        -1.345196
 O         3.361530        -0.479648        -1.864487
 C         2.697659        -0.704843        -0.457293
 O         3.043853         1.075345         0.989832
 C         1.725239         0.568145         1.362940
 H        -0.705764         0.096737        -0.157548
 H        -0.300095        -1.235165        -1.232673
 H        -0.044835        -1.465935         0.644998
 H         1.617917         1.257788        -2.053701
 H         1.255866         1.989336        -0.508788
 H         4.476641         1.481968        -2.055601
 H         5.285716         0.022640        -1.088496
 H         3.268177        -1.576445        -0.090885
 H         1.878385        -0.156089         2.107255
 H         1.069820         1.430204         1.625219
