19
Iteration:  3057
 C         0.019684        -0.797255        -0.205056
 C         1.314610        -0.013331        -0.229394
 C         1.771690         1.245126        -0.972405
 C         3.160671         0.844926        -0.333211
 C         4.181340         0.533900        -1.389626
 O         3.443736        -0.687031        -1.823351
 C         2.684733        -0.653678        -0.448400
 O         3.090712         1.168349         1.105810
 C         1.790371         0.405124         1.274157
 H        -0.664737        -0.228032         0.438872
 H        -0.492380        -0.778087        -1.177656
 H         0.266690        -1.842118         0.172395
 H         1.695655         1.386444        -2.075233
 H         1.415795         2.205372        -0.754331
 H         4.323135         1.168893        -2.209432
 H         5.141917         0.102990        -0.912313
 H         2.777406        -1.669780        -0.024423
 H         1.681247        -0.518111         1.927255
 H         0.986992         1.116834         1.576121
