19
Iteration:  3816
 C        -0.049813        -0.722398        -0.213757
 C         1.298390        -0.090547        -0.208768
 C         1.701229         1.113716        -0.966794
 C         3.125356         0.733957        -0.339193
 C         4.213698         0.664587        -1.378526
 O         3.492908        -0.670613        -1.756462
 C         2.704002        -0.653740        -0.485388
 O         3.164425         1.060030         1.059019
 C         1.762466         0.538566         1.247381
 H        -0.759638        -0.126760         0.324939
 H        -0.486708        -0.859467        -1.207977
 H        -0.164535        -1.763581         0.181166
 H         1.854040         1.194367        -2.023074
 H         1.176174         2.158529        -0.630517
 H         4.167058         1.279848        -2.274023
 H         5.264939         0.509160        -0.928325
 H         3.183632        -1.383021         0.125317
 H         1.736959        -0.287499         1.952080
 H         1.208360         1.451296         1.612529
