19
Iteration:  4556
 C        -0.100801        -0.699880        -0.181547
 C         1.318169        -0.072788        -0.055531
 C         1.696619         1.131637        -0.951268
 C         3.139117         0.799377        -0.360769
 C         4.304835         0.463932        -1.205495
 O         3.489737        -0.565523        -1.955663
 C         2.705320        -0.703794        -0.557282
 O         3.020512         1.225536         0.971003
 C         1.827735         0.419455         1.311510
 H        -0.832350         0.069357         0.074422
 H        -0.240589        -1.022044        -1.223677
 H        -0.447180        -1.679977         0.294090
 H         1.610046         0.840343        -2.029944
 H         1.254684         2.037005        -0.663858
 H         4.696325         1.304155        -1.903576
 H         5.096456        -0.073728        -0.749705
 H         3.144845        -1.484346         0.002317
 H         2.292152        -0.404807         1.948498
 H         1.324012         1.225389         1.835602
