19
Iteration:  2370
 C        -0.036134        -0.719745        -0.180490
 C         1.312446         0.013105        -0.181942
 C         1.782252         1.217676        -0.899087
 C         3.207252         0.800007        -0.366965
 C         4.179555         0.623926        -1.449626
 O         3.481585        -0.690768        -1.793010
 C         2.744791        -0.718364        -0.464200
 O         3.070469         1.024365         1.065059
 C         1.697946         0.465761         1.224883
 H        -0.766140         0.097999         0.156595
 H        -0.132794        -1.236317        -1.168535
 H         0.004742        -1.414501         0.703686
 H         1.656151         1.179072        -2.058054
 H         1.074186         2.163808        -0.652046
 H         4.331295         1.380747        -2.407765
 H         5.216055         0.451221        -1.073359
 H         3.115991        -1.460709         0.330826
 H         1.768794        -0.430762         1.760658
 H         1.000909         1.157909         1.695251
