19
Iteration:    22charge 0 multiplicity 1
 C        -0.018260        -0.735590        -0.221152
 C         1.314686        -0.041526        -0.078220
 C         1.802316         1.535276        -0.240300
 C         3.125338         0.749953        -0.275176
 C         4.041678         0.969299        -1.414550
 O         3.144123        -0.003384        -2.191927
 C         2.572016        -0.494366        -0.891392
 O         3.317064         0.502987         1.099840
 C         2.107940        -0.401567         1.217232
 H        -0.505402        -1.033953         0.684264
 H        -0.682614        -0.106957        -0.835174
 H         0.152701        -1.700422        -0.783858
 H         1.369829         1.997117        -1.099254
 H         1.670606         2.125015         0.645388
 H         4.033993         1.893956        -1.925250
 H         5.040991         0.533118        -1.327053
 H         2.912027        -1.516762        -0.599833
 H         2.402481        -1.502285         1.178798
 H         1.630516        -0.233262         2.197590
