19
Iteration:   449
 C        -0.043969        -0.811133        -0.207898
 C         1.342436        -0.045990        -0.154963
 C         1.800663         1.401377        -0.521965
 C         3.226724         0.768682        -0.267057
 C         4.122475         0.769732        -1.464942
 O         3.225142        -0.234359        -2.109787
 C         2.627463        -0.576557        -0.765771
 O         3.313377         0.803311         1.188018
 C         1.816522        -0.043383         1.275738
 H        -0.503359        -0.876599         0.850697
 H        -0.868408        -0.464271        -0.915133
 H         0.104639        -1.866372        -0.435436
 H         1.608709         1.659918        -1.571840
 H         1.546148         2.223755         0.111585
 H         4.090278         1.731871        -1.945957
 H         5.167278         0.352881        -1.327078
 H         2.880722        -1.610498        -0.429715
 H         2.224135        -0.922751         1.628754
 H         1.183781         0.541876         1.888784
