19
Iteration:  2784
 C         0.069403        -0.800307        -0.336733
 C         1.342848        -0.056397        -0.145097
 C         1.863499         1.245096        -0.915846
 C         3.149278         0.869359        -0.338830
 C         4.173923         0.575637        -1.376555
 O         3.324916        -0.706567        -1.874002
 C         2.697444        -0.622697        -0.475526
 O         3.105446         1.122930         1.088438
 C         1.693463         0.430126         1.337397
 H        -0.753953        -0.140602        -0.435636
 H         0.141844        -1.598715        -1.087598
 H        -0.173054        -1.331438         0.651101
 H         1.862733         1.085869        -1.995569
 H         1.388377         2.207451        -0.446530
 H         4.244181         1.287557        -2.229360
 H         5.219474         0.193562        -1.116404
 H         3.100897        -1.430316         0.188235
 H         1.837809        -0.368335         2.005541
 H         1.120106         1.164763         1.878715
