19
Iteration:   903charge 0 multiplicity 1
 C        -0.037995        -0.660519        -0.273740
 C         1.342840        -0.132015        -0.131323
 C         1.716186         1.173476        -0.876973
 C         3.219331         0.728500        -0.302942
 C         4.271327         0.662857        -1.439939
 O         3.262738        -0.414037        -1.902814
 C         2.727724        -0.668208        -0.574500
 O         3.103119         0.974865         1.167086
 C         1.862746         0.308616         1.292637
 H        -0.705137         0.144071        -0.016528
 H        -0.171235        -1.045503        -1.224655
 H        -0.309487        -1.478405         0.379347
 H         1.778246         1.120236        -1.942887
 H         1.424686         2.101731        -0.424305
 H         4.100609         1.544574        -2.217910
 H         5.264208         0.384183        -1.187353
 H         3.188209        -1.622106        -0.115972
 H         1.985190        -0.549184         2.056307
 H         1.118841         0.895216         1.977789
