19
Iteration:  1166
 C        -0.106203        -0.724297        -0.232038
 C         1.268625        -0.005459        -0.238222
 C         1.635295         1.302522        -0.812241
 C         3.129575         0.832594        -0.347650
 C         4.245229         0.515244        -1.422375
 O         3.510316        -0.648114        -1.895119
 C         2.714006        -0.632379        -0.519193
 O         3.050689         1.141014         1.069867
 C         1.936458         0.277616         1.355507
 H        -0.089917        -1.396824        -1.132921
 H        -0.145571        -1.322903         0.785212
 H        -0.908554         0.023058        -0.542511
 H         1.746437         1.357187        -1.873244
 H         1.167354         2.107911        -0.366628
 H         4.502489         1.295855        -2.191482
 H         5.070605         0.076703        -0.966481
 H         3.004446        -1.510994         0.121683
 H         2.321791        -0.654363         1.727250
 H         1.234055         0.772676         2.064782
