19
Iteration:  3167
 C        -0.074762        -0.704513        -0.153291
 C         1.342259        -0.140505        -0.143706
 C         1.678272         1.287607        -0.969922
 C         3.124734         0.841486        -0.388760
 C         4.225872         0.571099        -1.415055
 O         3.616400        -0.697068        -1.842866
 C         2.678110        -0.648784        -0.431454
 O         3.100626         1.052166         1.042884
 C         1.732993         0.452778         1.249475
 H        -0.785443         0.147695        -0.259218
 H        -0.397667        -1.339643        -1.004818
 H        -0.366766        -1.069274         0.887462
 H         1.512292         1.032875        -2.004225
 H         1.334604         2.215898        -0.579042
 H         4.268050         1.204254        -2.271648
 H         5.280816         0.336860        -0.848535
 H         3.148862        -1.433327         0.174011
 H         1.869983        -0.361390         1.985269
 H         0.938214         1.089654         1.580245
