19
Iteration:  2667
 C         0.016365        -0.794310        -0.217497
 C         1.290491         0.021393        -0.163726
 C         1.692838         1.288921        -0.921165
 C         3.161619         0.814657        -0.336404
 C         4.290771         0.488328        -1.368377
 O         3.446646        -0.657919        -1.769005
 C         2.670815        -0.637024        -0.542029
 O         3.106615         1.063462         0.990327
 C         1.703056         0.431252         1.239441
 H        -0.612074        -0.400944         0.638828
 H        -0.404983        -0.868095        -1.227031
 H         0.316621        -1.832038         0.070103
 H         1.572619         1.191429        -1.985615
 H         1.455736         2.220038        -0.528133
 H         4.510271         1.400190        -2.066945
 H         5.193446         0.119710        -0.980891
 H         3.122874        -1.299206         0.223204
 H         1.803347        -0.217127         2.216435
 H         1.032816         1.256439         1.641126
