19
Iteration:  3413
 C         0.052145        -0.712137        -0.349456
 C         1.396757        -0.008012        -0.137773
 C         1.793506         1.199353        -0.928738
 C         3.149129         0.818928        -0.336049
 C         4.250315         0.454866        -1.443908
 O         3.271489        -0.694553        -1.774968
 C         2.787323        -0.662990        -0.421048
 O         3.030807         1.239146         1.029790
 C         1.728433         0.414531         1.400124
 H        -0.828052        -0.326733         0.232460
 H        -0.290536        -0.714972        -1.393046
 H         0.072313        -1.775613        -0.100349
 H         1.892656         1.020026        -2.054721
 H         1.235788         2.078093        -0.840729
 H         4.471185         1.122761        -2.404929
 H         5.218975         0.042046        -1.109867
 H         3.201299        -1.535558         0.175675
 H         2.064327        -0.391378         2.044504
 H         0.984370         1.139566         1.813210
