19
Iteration:  1549
 C         0.024735        -0.737159        -0.223343
 C         1.378330         0.007403        -0.109404
 C         1.711995         1.281487        -0.915291
 C         3.169216         0.779309        -0.319985
 C         4.218305         0.612927        -1.445463
 O         3.418503        -0.613676        -1.867366
 C         2.715541        -0.654655        -0.491823
 O         3.059741         0.959874         1.066003
 C         1.752507         0.420110         1.282209
 H         0.199890        -1.520901        -0.901996
 H        -0.459193        -1.220947         0.679092
 H        -0.647142        -0.059146        -0.617353
 H         1.541938         1.092546        -2.024637
 H         1.273157         2.286944        -0.420530
 H         4.335083         1.454844        -2.179805
 H         5.196746         0.217591        -1.218469
 H         3.022212        -1.538300         0.103669
 H         1.836040        -0.477802         2.002572
 H         1.158763         1.131208         1.906024
