19
Iteration:  4396
 C        -0.102100        -0.694745        -0.158049
 C         1.306874        -0.097308        -0.252206
 C         1.731680         1.192657        -0.960976
 C         3.202510         0.736156        -0.335601
 C         4.228871         0.640849        -1.395580
 O         3.518360        -0.674702        -1.771088
 C         2.738178        -0.609217        -0.494537
 O         3.076628         1.121106         1.039167
 C         1.746740         0.366017         1.234401
 H        -0.859032         0.115887        -0.048112
 H        -0.307074        -1.469413        -0.919959
 H        -0.221212        -1.328343         0.739137
 H         1.790102         1.138047        -2.069051
 H         1.430164         2.211311        -0.518980
 H         4.128901         1.356798        -2.145467
 H         5.289390         0.534593        -1.055177
 H         2.936923        -1.449116         0.283452
 H         1.845758        -0.376606         2.060766
 H         0.975074         1.127738         1.561359
