19
Iteration:   237
 C        -0.110295        -0.652260        -0.232611
 C         1.302465        -0.033114        -0.018941
 C         1.725995         1.381034        -0.365022
 C         3.075366         0.787546        -0.296164
 C         4.111629         0.864400        -1.415969
 O         3.275843        -0.163789        -2.177597
 C         2.588201        -0.546557        -0.876264
 O         3.332121         0.649146         1.111949
 C         2.054518        -0.215673         1.296684
 H        -0.534669        -1.206331         0.582316
 H        -0.869831        -0.030611        -0.765717
 H         0.324212        -1.535422        -0.821780
 H         1.418203         1.640272        -1.396604
 H         1.347703         2.223395         0.342502
 H         4.249303         1.724833        -2.105326
 H         5.112254         0.349241        -1.099016
 H         2.999234        -1.563217        -0.619841
 H         2.464819        -1.185966         1.525191
 H         1.541479         0.219066         2.130578
