19
Iteration:  3241charge 0 multiplicity 1
 C         0.062949        -0.785503        -0.267948
 C         1.361414        -0.101825        -0.160621
 C         1.786057         1.232618        -0.927115
 C         3.174971         0.752941        -0.366643
 C         4.223950         0.472817        -1.419114
 O         3.312221        -0.605824        -1.809865
 C         2.771335        -0.685166        -0.334300
 O         3.077881         1.142518         1.047968
 C         1.712897         0.544378         1.216380
 H        -0.743140        -0.304513         0.365561
 H        -0.416430        -0.537071        -1.209570
 H         0.021399        -1.863207         0.045288
 H         1.816774         1.210592        -2.090953
 H         1.400851         2.193851        -0.595988
 H         4.363038         1.234944        -2.178315
 H         5.152540         0.081834        -1.079312
 H         3.145013        -1.437324         0.366706
 H         1.708944        -0.205141         2.023725
 H         0.942594         1.294774         1.487051
