19
Iteration:  2662
 C         0.038573        -0.797354        -0.247802
 C         1.306848         0.046289        -0.162767
 C         1.646186         1.302913        -0.928170
 C         3.149283         0.839352        -0.339823
 C         4.291821         0.443138        -1.330929
 O         3.427273        -0.668655        -1.767964
 C         2.688841        -0.633622        -0.571039
 O         3.119159         1.079931         1.009771
 C         1.721312         0.420959         1.282534
 H        -0.708413        -0.361513         0.392083
 H        -0.497150        -0.914292        -1.205870
 H         0.402634        -1.788180         0.056569
 H         1.523532         1.048735        -2.012749
 H         1.392117         2.343604        -0.480468
 H         4.234890         1.207537        -2.044281
 H         5.372949         0.148411        -1.006445
 H         3.189624        -1.279865         0.162076
 H         1.929821        -0.213229         2.064855
 H         1.057578         1.187419         1.609998
