19
Iteration:  4931charge 0 multiplicity 1
 C        -0.010464        -0.718487        -0.308015
 C         1.339899        -0.076321        -0.128340
 C         1.841914         1.185951        -0.879243
 C         3.216626         0.777849        -0.314426
 C         4.203860         0.614781        -1.509581
 O         3.411827        -0.753338        -1.819302
 C         2.728944        -0.595252        -0.539591
 O         3.056116         1.110153         1.105971
 C         1.670893         0.498687         1.371423
 H        -0.945819        -0.022434        -0.165083
 H         0.063345        -1.329405        -1.261761
 H        -0.019415        -1.529788         0.433107
 H         1.514904         0.925158        -1.913847
 H         1.390078         2.115409        -0.706685
 H         4.056150         1.292029        -2.360675
 H         5.262642         0.329172        -1.168118
 H         3.152421        -1.387657         0.095353
 H         1.825974        -0.277298         2.214633
 H         1.069975         1.347004         1.773242
