19
Iteration:  1947
 C        -0.090712        -0.723527        -0.218394
 C         1.300707        -0.055525        -0.234280
 C         1.699195         1.186855        -0.935553
 C         3.137699         0.845753        -0.372685
 C         4.222379         0.601587        -1.304012
 O         3.480894        -0.697940        -1.757470
 C         2.671440        -0.649938        -0.528487
 O         3.103461         1.121035         1.002889
 C         1.835633         0.381576         1.283226
 H        -0.722330        -0.136150         0.495463
 H        -0.433692        -0.642754        -1.228360
 H        -0.071737        -1.755355         0.063216
 H         1.682848         1.151767        -2.062295
 H         1.377928         2.255050        -0.519168
 H         4.576244         1.194180        -2.162152
 H         5.167965         0.333105        -0.842918
 H         3.112522        -1.487909         0.096635
 H         2.048233        -0.451792         1.944794
 H         1.350332         1.146689         1.838457
