19
Iteration:  3105
 C         0.021846        -0.796341        -0.360651
 C         1.370889        -0.095410        -0.125906
 C         1.678813         1.215873        -0.885485
 C         3.122469         0.836204        -0.342026
 C         4.263841         0.440490        -1.351161
 O         3.327570        -0.632575        -1.833951
 C         2.734342        -0.685675        -0.519629
 O         3.087879         1.200193         1.057277
 C         1.815041         0.545211         1.356611
 H        -0.809736        -0.167850        -0.098433
 H        -0.070674        -1.105146        -1.433541
 H         0.027754        -1.717082         0.196274
 H         1.551079         1.182534        -1.958302
 H         1.157336         2.238295        -0.719270
 H         4.685941         0.933216        -2.258203
 H         5.011851        -0.012994        -0.807698
 H         3.186290        -1.463160         0.129826
 H         2.198410        -0.275318         2.025148
 H         1.079735         1.206813         1.922201
