19
Iteration:  3871
 C         0.021488        -0.849546        -0.316218
 C         1.366299        -0.057628        -0.202984
 C         1.753194         1.306557        -0.877235
 C         3.164483         0.866081        -0.341149
 C         4.235357         0.445410        -1.343315
 O         3.305411        -0.606882        -1.769158
 C         2.698283        -0.693348        -0.458313
 O         3.032549         1.243857         1.032378
 C         1.847552         0.372187         1.225965
 H        -0.766057        -0.091404        -0.340884
 H        -0.054972        -1.503689        -1.180930
 H        -0.073300        -1.388161         0.684160
 H         1.777398         1.123043        -1.914423
 H         1.656014         2.432584        -0.490730
 H         4.315671         1.080567        -2.171946
 H         5.120295        -0.030093        -0.880451
 H         3.117248        -1.564367        -0.004628
 H         2.082155        -0.458005         1.857701
 H         1.127228         0.959651         1.819770
