19
Iteration:  3719
 C         0.024870        -0.802902        -0.258663
 C         1.316241        -0.016094        -0.081786
 C         1.726387         1.203409        -0.903874
 C         3.174321         0.712190        -0.329686
 C         4.264086         0.503016        -1.430253
 O         3.394279        -0.581665        -1.832234
 C         2.775761        -0.681312        -0.530436
 O         3.063713         1.107617         1.071814
 C         1.685277         0.518349         1.327328
 H        -0.804558        -0.133683        -0.381027
 H         0.200569        -1.325348        -1.160503
 H        -0.267842        -1.607921         0.420706
 H         1.684607         1.196078        -1.929170
 H         1.382608         2.216539        -0.608686
 H         4.240883         1.244864        -2.301692
 H         5.329738         0.179293        -1.390476
 H         3.225379        -1.513371         0.059691
 H         1.748800         0.013852         2.308352
 H         1.082670         1.492744         1.474021
