19
Iteration:  3501
 C        -0.097773        -0.755568        -0.124289
 C         1.338293        -0.065910        -0.186199
 C         1.829649         1.253745        -0.958464
 C         3.157446         0.779767        -0.334415
 C         4.202768         0.576268        -1.348918
 O         3.459588        -0.722423        -1.793434
 C         2.736170        -0.656400        -0.573145
 O         3.029923         1.116276         1.062364
 C         1.801590         0.475130         1.227923
 H        -0.887659         0.060662        -0.187727
 H        -0.247526        -1.263368        -1.080397
 H        -0.168588        -1.335699         0.814319
 H         1.787179         1.072481        -2.030428
 H         1.514049         2.254389        -0.637086
 H         4.285036         1.410499        -2.148758
 H         5.208944         0.419833        -1.063096
 H         3.115979        -1.467165         0.134959
 H         1.792886        -0.405858         1.818175
 H         0.907963         1.083898         1.479450
