19
Iteration:  4150charge 0 multiplicity 1
 C        -0.017751        -0.732153        -0.228447
 C         1.401823        -0.051504        -0.093976
 C         1.812311         1.106787        -0.964015
 C         3.221495         0.736709        -0.280895
 C         4.368621         0.498904        -1.470046
 O         3.292458        -0.521400        -1.894777
 C         2.784907        -0.712828        -0.478697
 O         2.974900         1.163346         1.124978
 C         1.656438         0.469316         1.292173
 H        -0.792771        -0.302141         0.428841
 H        -0.477119        -0.702492        -1.237905
 H         0.122430        -1.724678         0.083951
 H         1.932838         1.078686        -2.022568
 H         1.468073         2.124759        -0.587111
 H         4.439543         1.228396        -2.357905
 H         5.236210         0.099006        -1.155957
 H         3.169795        -1.633005         0.056101
 H         1.736318        -0.007839         2.188907
 H         0.904661         1.208035         1.440747
