19
Iteration:  1932charge 0 multiplicity 1
 C        -0.118623        -0.682833        -0.217517
 C         1.310041        -0.095006        -0.141601
 C         1.702194         1.206115        -0.931592
 C         3.139186         0.751140        -0.323330
 C         4.293226         0.481742        -1.405675
 O         3.512289        -0.582976        -1.822659
 C         2.782147        -0.690750        -0.520261
 O         3.081119         1.132795         1.043814
 C         1.748550         0.482544         1.273018
 H        -0.721147        -0.360446         0.737265
 H        -0.751221        -0.534727        -1.156026
 H        -0.085292        -1.798971        -0.067418
 H         1.653962         1.037960        -1.972739
 H         1.205837         2.017642        -0.607227
 H         4.313998         1.349090        -2.057454
 H         5.393427         0.224541        -1.033576
 H         3.139193        -1.552639         0.075224
 H         1.977215        -0.297511         2.043212
 H         0.860825         1.105062         1.532489
