19
Iteration:  2883
 C        -0.060387        -0.690958        -0.204067
 C         1.347947        -0.060700        -0.135184
 C         1.783767         1.250180        -0.935289
 C         3.138944         0.847400        -0.342868
 C         4.165438         0.545659        -1.372590
 O         3.496113        -0.706698        -1.774599
 C         2.778916        -0.670096        -0.518418
 O         3.013669         1.162096         0.980516
 C         1.772618         0.351232         1.262274
 H        -0.758667        -0.452986         0.568395
 H        -0.332620        -0.480725        -1.236376
 H         0.030566        -1.801878         0.010018
 H         1.774369         1.152889        -2.105228
 H         1.151969         2.158390        -0.524431
 H         4.148753         1.381701        -2.078085
 H         5.193715         0.341779        -1.075745
 H         3.156592        -1.387550         0.260083
 H         2.126628        -0.547119         1.849706
 H         0.982559         0.897170         1.819234
