19
Iteration:   118
 C        -0.056795        -0.724172        -0.238572
 C         1.321711        -0.075325        -0.060911
 C         1.785237         1.356730        -0.305127
 C         3.162829         0.843523        -0.268078
 C         4.049711         0.927992        -1.502728
 O         3.163150        -0.033648        -2.120705
 C         2.639981        -0.421729        -0.910455
 O         3.301115         0.433295         1.086897
 C         2.049433        -0.241339         1.303318
 H        -0.195251        -1.346494        -1.104410
 H        -0.184699        -1.421665         0.626785
 H        -0.946773         0.091185        -0.285751
 H         1.486129         1.724050        -1.260864
 H         1.469633         2.134218         0.377770
 H         4.232549         1.806151        -2.109082
 H         5.141178         0.593440        -1.238833
 H         3.191714        -1.379702        -0.501667
 H         2.234231        -1.351086         1.510866
 H         1.471383         0.188768         2.137050
