19
Iteration:  3755
 C        -0.015367        -0.770335        -0.234035
 C         1.335530        -0.099371        -0.147601
 C         1.690788         1.158553        -1.016572
 C         3.148010         0.855389        -0.304160
 C         4.256138         0.423578        -1.307614
 O         3.374777        -0.545781        -1.800056
 C         2.719720        -0.681891        -0.554788
 O         3.071337         1.241018         1.000155
 C         1.845250         0.403910         1.342263
 H        -0.860625        -0.085517         0.181344
 H        -0.207322        -0.788643        -1.309392
 H        -0.067154        -1.726863         0.289448
 H         1.867384         0.966134        -2.072004
 H         1.304169         2.074222        -0.762168
 H         4.525745         1.135288        -2.147081
 H         5.095558         0.087914        -0.745176
 H         3.137764        -1.497466         0.098548
 H         1.983559        -0.418293         2.048530
 H         1.075933         1.078683         1.716226
