19
Iteration:  4475
 C         0.075538        -0.784382        -0.299710
 C         1.339143        -0.084817        -0.046919
 C         1.789893         1.158286        -0.927129
 C         3.184766         0.739537        -0.344024
 C         4.224387         0.540900        -1.405486
 O         3.375226        -0.637237        -1.870983
 C         2.697546        -0.652501        -0.518612
 O         3.079775         1.112312         1.100289
 C         1.697081         0.582445         1.298153
 H        -0.929644        -0.333024        -0.008994
 H        -0.221548        -0.970478        -1.367697
 H         0.063928        -1.696031         0.255109
 H         1.650260         1.061868        -1.955229
 H         1.406413         2.172967        -0.681996
 H         4.212938         1.341554        -2.056371
 H         5.258938         0.166889        -1.168786
 H         3.188722        -1.339573         0.233445
 H         1.755594        -0.013586         2.262594
 H         0.991294         1.431572         1.575453
