19
Iteration:  1817
 C        -0.135166        -0.756032        -0.235287
 C         1.303604        -0.103181        -0.153204
 C         1.843985         1.165903        -0.990053
 C         3.200067         0.786019        -0.318019
 C         4.216840         0.490486        -1.357451
 O         3.379267        -0.600355        -1.826389
 C         2.783138        -0.668045        -0.466496
 O         3.084862         1.203166         1.066006
 C         1.781713         0.430249         1.291353
 H        -0.832781        -0.138892         0.368607
 H        -0.573781        -0.611081        -1.245393
 H        -0.183364        -1.835816        -0.024626
 H         2.010109         1.114176        -2.079267
 H         1.444879         2.224112        -0.688390
 H         4.137782         1.351524        -2.241785
 H         5.160404         0.276417        -0.899691
 H         3.262971        -1.559470        -0.040335
 H         1.951337        -0.407455         2.047752
 H         1.023348         1.216936         1.553347
