19
Iteration:  3678charge 0 multiplicity 1
 C        -0.012051        -0.739425        -0.237393
 C         1.346822        -0.077562        -0.191917
 C         1.760345         1.288055        -0.971006
 C         3.110372         0.823395        -0.294771
 C         4.217234         0.512284        -1.434800
 O         3.433195        -0.647014        -1.682680
 C         2.713864        -0.655118        -0.498012
 O         3.085991         1.140302         1.033122
 C         1.768906         0.379952         1.234335
 H        -0.811953         0.162503        -0.245306
 H        -0.035615        -1.357662        -1.152800
 H        -0.139881        -1.501383         0.574063
 H         1.637290         1.231087        -2.021634
 H         1.310139         2.184425        -0.588769
 H         4.152948         1.328216        -2.243799
 H         5.196154         0.259874        -1.165359
 H         3.198506        -1.387964         0.227058
 H         2.038358        -0.583714         1.662214
 H         1.037828         0.815004         1.904509
