19
Iteration:  1159charge 0 multiplicity 1
 C        -0.062227        -0.737222        -0.229156
 C         1.299623        -0.024716        -0.240545
 C         1.648637         1.307104        -0.830931
 C         3.140441         0.804719        -0.353405
 C         4.285487         0.515391        -1.386758
 O         3.468397        -0.638681        -1.850235
 C         2.666194        -0.604396        -0.558864
 O         3.044054         1.113079         1.037011
 C         1.929285         0.294863         1.366817
 H        -0.070930        -1.485436        -1.004664
 H        -0.324759        -1.139793         0.680229
 H        -0.838642        -0.025074        -0.483759
 H         1.472307         1.431434        -1.932559
 H         1.204476         2.172378        -0.223068
 H         4.340179         1.315720        -2.208964
 H         5.331647         0.250444        -1.001663
 H         3.112419        -1.487377        -0.087479
 H         2.169631        -0.703059         1.875493
 H         1.271131         0.833085         2.019365
