19
Iteration:  3735
 C        -0.003781        -0.792831        -0.325542
 C         1.350964        -0.146464        -0.106621
 C         1.755383         1.129580        -0.922850
 C         3.185497         0.740528        -0.315180
 C         4.232470         0.562124        -1.288777
 O         3.301349        -0.555500        -1.902191
 C         2.723607        -0.706161        -0.435852
 O         3.129519         1.166032         1.017415
 C         1.791974         0.595402         1.287162
 H        -0.947433        -0.135725        -0.152662
 H        -0.166739        -1.199820        -1.387391
 H        -0.130950        -1.553746         0.489416
 H         1.528161         0.913153        -2.046629
 H         1.308212         2.047064        -0.550991
 H         4.572531         1.381990        -1.919198
 H         5.087958         0.081245        -0.802730
 H         3.158028        -1.606288         0.019102
 H         1.933730        -0.192466         2.060703
 H         1.085679         1.334243         1.567372
