19
Iteration:   843charge 0 multiplicity 1
 C        -0.041890        -0.757728        -0.210524
 C         1.262234        -0.033007        -0.136339
 C         1.702508         1.333582        -0.813187
 C         3.136101         0.831440        -0.315514
 C         4.199895         0.589745        -1.348998
 O         3.366958        -0.449081        -1.932987
 C         2.673117        -0.538089        -0.645516
 O         3.214884         0.915714         1.065703
 C         1.852263         0.177052         1.335187
 H        -0.463274        -0.670350        -1.228950
 H         0.112219        -1.884250        -0.052510
 H        -0.711507        -0.425941         0.583543
 H         1.797761         1.340225        -1.913269
 H         1.373094         2.355272        -0.519715
 H         4.448097         1.189007        -2.155572
 H         5.170103         0.194802        -0.839730
 H         3.045579        -1.388537        -0.128513
 H         2.045636        -0.792823         1.691541
 H         1.216491         0.805123         1.887014
