19
Iteration:  3889
 C         0.027089        -0.805756        -0.244117
 C         1.269916         0.038800        -0.167061
 C         1.771062         1.276785        -0.998949
 C         3.128235         0.851239        -0.349693
 C         4.236444         0.537296        -1.352804
 O         3.398316        -0.702672        -1.774759
 C         2.667066        -0.557978        -0.515288
 O         3.109860         1.084744         1.025470
 C         1.797376         0.386390         1.322921
 H        -0.957320        -0.333764        -0.453670
 H         0.211785        -1.491327        -1.156948
 H        -0.150013        -1.537921         0.586007
 H         1.667575         1.332544        -2.089287
 H         1.261992         2.078163        -0.573588
 H         4.452144         1.276945        -2.162173
 H         5.068505         0.107829        -0.774772
 H         3.114449        -1.278599         0.224982
 H         2.077991        -0.511015         1.961436
 H         1.110390         0.946941         1.915761
