19
Iteration:  3284charge 0 multiplicity 1
 C        -0.018798        -0.780434        -0.278333
 C         1.255827         0.016049        -0.089392
 C         1.745225         1.247653        -0.997867
 C         3.134304         0.759753        -0.366487
 C         4.232111         0.521011        -1.430342
 O         3.539861        -0.704141        -1.808247
 C         2.587393        -0.654817        -0.371154
 O         3.113572         1.111095         0.992530
 C         1.771311         0.483842         1.333660
 H        -0.903417        -0.193671         0.068313
 H        -0.057089        -0.757057        -1.350906
 H         0.159586        -1.699065         0.271719
 H         1.588407         1.126770        -2.174872
 H         1.396448         2.138205        -0.453861
 H         4.226145         1.243809        -2.288434
 H         5.163876         0.420654        -0.967500
 H         3.146176        -1.394310         0.200764
 H         1.888602        -0.373251         2.063712
 H         1.204890         1.276181         1.911181
