19
Iteration:  1688
 C        -0.028842        -0.726269        -0.280257
 C         1.300844        -0.090368        -0.157800
 C         1.768397         1.165326        -0.898599
 C         3.185399         0.786245        -0.292892
 C         4.208584         0.609161        -1.406551
 O         3.408681        -0.596709        -1.871190
 C         2.668156        -0.674734        -0.406404
 O         3.172909         1.042440         1.091762
 C         1.752894         0.513986         1.243962
 H        -0.568992        -0.541022        -1.228593
 H         0.008261        -1.863010        -0.274990
 H        -0.751268        -0.463388         0.624707
 H         1.710634         0.966620        -1.945626
 H         1.376987         2.097534        -0.615948
 H         4.180517         1.237145        -2.269840
 H         5.325861         0.444579        -1.164537
 H         3.133637        -1.603714        -0.008578
 H         1.779260        -0.242677         1.996873
 H         0.994847         1.256367         1.574275
