19
Iteration:  2783
 C         0.076287        -0.795909        -0.333186
 C         1.333314        -0.053787        -0.150310
 C         1.854956         1.251416        -0.918090
 C         3.150819         0.867242        -0.336180
 C         4.176631         0.571879        -1.380866
 O         3.327001        -0.706134        -1.868855
 C         2.703573        -0.621623        -0.474700
 O         3.100192         1.118258         1.077369
 C         1.702958         0.427733         1.342582
 H        -0.741491        -0.149122        -0.471445
 H         0.113766        -1.596272        -1.072471
 H        -0.161989        -1.357318         0.621859
 H         1.873191         1.121863        -1.988840
 H         1.396042         2.231978        -0.430847
 H         4.210724         1.238788        -2.214446
 H         5.216323         0.225837        -1.085376
 H         3.078147        -1.410739         0.215734
 H         1.832874        -0.384426         2.038529
 H         1.117670         1.143376         1.888548
