19
Iteration:  4257charge 0 multiplicity 1
 C        -0.097456        -0.603513        -0.182180
 C         1.417686        -0.171082        -0.188664
 C         1.803285         1.044174        -0.953761
 C         3.178891         0.736268        -0.316814
 C         4.176397         0.591308        -1.325160
 O         3.398020        -0.505252        -1.831734
 C         2.799217        -0.788314        -0.489219
 O         3.081847         1.175310         1.039636
 C         1.734390         0.444025         1.226031
 H        -0.822890         0.261686        -0.082467
 H        -0.275792        -1.249923        -1.102659
 H        -0.403907        -1.371371         0.490841
 H         1.875606         0.932507        -1.986950
 H         1.132148         1.870617        -0.657241
 H         4.193911         1.584614        -1.834020
 H         5.247322         0.190677        -1.066816
 H         3.169698        -1.588845         0.047628
 H         1.881633        -0.218717         2.122449
 H         0.936147         1.254401         1.330190
