19
Iteration:  1366charge 0 multiplicity 1
 C        -0.010363        -0.789611        -0.181598
 C         1.316468        -0.020049        -0.175845
 C         1.779801         1.308100        -0.879790
 C         3.139819         0.789130        -0.351282
 C         4.215169         0.559414        -1.394989
 O         3.453407        -0.592244        -1.886783
 C         2.647229        -0.655479        -0.628984
 O         3.078604         1.020499         1.119962
 C         1.786455         0.423730         1.338601
 H         0.033834        -1.594426        -0.988630
 H        -0.255775        -1.297516         0.819647
 H        -0.907679        -0.093494        -0.443177
 H         1.734860         1.315354        -1.952787
 H         1.359147         2.145721        -0.490334
 H         4.421569         1.345988        -2.221158
 H         5.183236         0.297814        -1.059586
 H         3.073105        -1.526901        -0.104675
 H         2.015237        -0.431764         1.965159
 H         1.091050         1.025079         1.860985
