19
Iteration:  2160charge 0 multiplicity 1
 C         0.010631        -0.845947        -0.281129
 C         1.270127         0.001707        -0.087592
 C         1.837403         1.324501        -0.946336
 C         3.146110         0.800631        -0.360966
 C         4.240773         0.464812        -1.423817
 O         3.392819        -0.656607        -1.813011
 C         2.733034        -0.611391        -0.475695
 O         3.084695         1.079732         1.049495
 C         1.716481         0.474948         1.324110
 H        -0.791060        -0.431639         0.241467
 H        -0.286916        -1.071192        -1.301636
 H         0.003899        -1.833433         0.177613
 H         1.729424         1.262183        -2.042999
 H         1.333709         2.339456        -0.548820
 H         4.325269         1.125513        -2.337864
 H         5.228974         0.352042        -1.110903
 H         3.309813        -1.262812         0.243281
 H         1.718547        -0.369762         1.972166
 H         1.088914         1.228104         1.773009
