19
Iteration:   726charge 0 multiplicity 1
 C        -0.120724        -0.757732        -0.183946
 C         1.350091        -0.075249        -0.103071
 C         1.770175         1.403458        -0.713512
 C         3.114380         0.816158        -0.336439
 C         4.177251         0.603514        -1.416336
 O         3.396751        -0.394676        -2.059419
 C         2.713520        -0.587823        -0.678666
 O         3.080785         0.950733         1.102267
 C         1.916086         0.063928         1.350578
 H        -0.231090        -1.209843         0.810773
 H        -0.855751         0.050144        -0.303806
 H        -0.103640        -1.470419        -0.976849
 H         1.580719         1.460909        -1.770316
 H         1.593647         2.322999        -0.242153
 H         4.607185         1.401919        -2.047886
 H         4.967212         0.117876        -0.911352
 H         3.104382        -1.523973        -0.210849
 H         2.211788        -0.914513         1.833940
 H         1.188275         0.697412         1.931328
