19
Iteration:  1277charge 0 multiplicity 1
 C        -0.020184        -0.800170        -0.306468
 C         1.361523        -0.036099        -0.158154
 C         1.751844         1.364191        -0.877777
 C         3.118477         0.894101        -0.399728
 C         4.274109         0.478093        -1.297762
 O         3.310675        -0.631721        -1.869025
 C         2.696035        -0.632168        -0.540554
 O         3.075261         1.124226         1.081729
 C         1.906572         0.314577         1.333485
 H        -0.568517        -0.640669        -1.265472
 H         0.088540        -1.943788        -0.072820
 H        -0.840335        -0.417540         0.413186
 H         1.682276         1.065927        -1.888474
 H         1.218420         2.196429        -0.770259
 H         4.513595         1.231451        -2.157694
 H         5.159902         0.146293        -0.829910
 H         3.051114        -1.360260         0.201718
 H         2.166021        -0.512851         1.976204
 H         1.048605         0.790773         1.783070
