19
Iteration:  4667charge 0 multiplicity 1
 C        -0.004030        -0.737088        -0.326274
 C         1.389426        -0.061450        -0.074583
 C         1.720368         1.179304        -0.958249
 C         3.198938         0.793464        -0.345292
 C         4.314097         0.420942        -1.331793
 O         3.286006        -0.652182        -1.901517
 C         2.759168        -0.613853        -0.439241
 O         2.963668         1.246722         1.018781
 C         1.820748         0.430517         1.385886
 H        -0.801354        -0.090326         0.128544
 H        -0.108934        -0.648801        -1.436052
 H         0.008085        -1.818315        -0.003594
 H         1.632678         0.952092        -1.936518
 H         1.309717         2.200054        -0.761226
 H         4.571836         1.104222        -2.149060
 H         5.216392        -0.056083        -0.948975
 H         3.056790        -1.428705         0.182989
 H         2.383208        -0.384128         2.064844
 H         1.099348         1.140064         1.887839
