19
Iteration:  1165charge 0 multiplicity 1
 C        -0.104503        -0.726806        -0.229792
 C         1.273013        -0.001378        -0.244883
 C         1.633444         1.301367        -0.812026
 C         3.131174         0.828645        -0.348700
 C         4.250531         0.517567        -1.422196
 O         3.507082        -0.648388        -1.890628
 C         2.708465        -0.628436        -0.520196
 O         3.047604         1.137111         1.064980
 C         1.938883         0.278961         1.359211
 H        -0.086909        -1.397120        -1.133595
 H        -0.150100        -1.311297         0.802777
 H        -0.886599         0.015415        -0.562560
 H         1.723166         1.368414        -1.885464
 H         1.156092         2.114101        -0.331359
 H         4.473349         1.282781        -2.169538
 H         5.126248         0.073155        -0.964741
 H         3.017258        -1.509378         0.088471
 H         2.301907        -0.656903         1.742935
 H         1.233425         0.786844         2.073282
