19
Iteration:   310charge 0 multiplicity 1
 C        -0.075164        -0.772680        -0.239235
 C         1.292147        -0.037503        -0.129222
 C         1.695869         1.383985        -0.460491
 C         3.138597         0.683099        -0.318918
 C         4.058326         0.903265        -1.428886
 O         3.258518        -0.146017        -2.142012
 C         2.638114        -0.647282        -0.860809
 O         3.358853         0.528203         1.183985
 C         2.016678         0.090102         1.365082
 H         0.135888        -1.582539        -0.971713
 H        -0.354121        -1.171299         0.737762
 H        -0.817553        -0.184806        -0.644212
 H         1.635835         1.835192        -1.441808
 H         1.520904         2.169611         0.279795
 H         4.073259         1.886460        -1.988002
 H         4.998034         0.530310        -1.226062
 H         3.049394        -1.586284        -0.551333
 H         1.998140        -0.828991         2.008836
 H         1.464741         0.995439         1.817259
