19
Iteration:   139charge 0 multiplicity 1
 C         0.035823        -0.682086        -0.249530
 C         1.363892        -0.069375        -0.106595
 C         1.569101         1.492108        -0.358675
 C         3.084579         0.819539        -0.234106
 C         4.052410         0.824945        -1.415975
 O         3.141226        -0.077891        -2.194494
 C         2.610903        -0.516141        -0.852828
 O         3.397111         0.503027         1.152001
 C         2.098982        -0.257250         1.261228
 H        -0.196140        -0.527382        -1.307787
 H         0.099492        -1.785280         0.007581
 H        -0.814843        -0.010254         0.345400
 H         1.296317         1.893374        -1.337119
 H         1.271849         2.233526         0.431275
 H         4.359639         1.817985        -1.847385
 H         5.145749         0.370541        -1.212911
 H         3.272319        -1.428830        -0.622244
 H         2.344074        -1.345155         1.374576
 H         1.571438         0.058490         2.147645
