19
Iteration:  2136
 C         0.064529        -0.716671        -0.228364
 C         1.351827        -0.041745        -0.204087
 C         1.731946         1.173678        -0.893689
 C         3.152958         0.780239        -0.282558
 C         4.206108         0.550990        -1.407190
 O         3.402264        -0.654944        -1.828256
 C         2.716666        -0.677902        -0.515431
 O         3.078131         1.080608         1.089267
 C         1.762513         0.529239         1.241826
 H        -0.531134        -0.498517         0.617495
 H        -0.488120        -0.773488        -1.194573
 H         0.033373        -1.834145        -0.040482
 H         1.772868         1.130013        -1.978955
 H         1.231895         2.160601        -0.574959
 H         4.518076         1.240175        -2.204744
 H         5.169262         0.379868        -0.984042
 H         2.960247        -1.615608         0.127802
 H         1.570259        -0.059117         2.088651
 H         0.996926         1.304617         1.273401
