19
Iteration:  4413
 C        -0.033612        -0.700201        -0.133420
 C         1.275130        -0.024770        -0.107293
 C         1.803370         1.294693        -0.964624
 C         3.106916         0.869986        -0.371129
 C         4.255475         0.494527        -1.414500
 O         3.560343        -0.659380        -1.817575
 C         2.752403        -0.739974        -0.578172
 O         2.913570         1.144415         1.068384
 C         1.763194         0.362245         1.279538
 H        -0.798352         0.043601        -0.250978
 H        -0.041648        -1.406606        -0.956751
 H        -0.125403        -1.203884         0.871365
 H         1.717555         1.071217        -2.090919
 H         1.332343         2.193059        -0.679072
 H         4.451686         1.279106        -2.297159
 H         5.207859         0.206598        -0.993339
 H         3.086915        -1.542034         0.067277
 H         2.152239        -0.577349         1.695408
 H         1.112064         0.920678         1.926985
