19
Iteration:  2765
 C         0.001169        -0.805928        -0.341608
 C         1.343267         0.023003        -0.146889
 C         1.680181         1.358977        -0.887893
 C         3.125821         0.788361        -0.377098
 C         4.203509         0.476412        -1.442253
 O         3.432759        -0.650047        -1.692641
 C         2.704425        -0.639789        -0.464155
 O         3.049519         1.099750         1.051189
 C         1.859685         0.391051         1.265235
 H        -0.917507        -0.145325        -0.390961
 H         0.307596        -1.345670        -1.247519
 H        -0.208804        -1.408626         0.578108
 H         1.429320         1.268475        -1.975867
 H         1.361895         2.244649        -0.416215
 H         4.427518         1.260169        -2.290336
 H         5.213060         0.084388        -1.158748
 H         3.195855        -1.434562         0.121420
 H         2.097786        -0.498543         1.869849
 H         1.113182         1.096294         1.744827
