19
Iteration:  4985charge 0 multiplicity 1
 C        -0.021568        -0.820986        -0.238530
 C         1.312070        -0.087250        -0.049841
 C         1.688351         1.276604        -0.956536
 C         3.130124         0.801071        -0.368060
 C         4.298756         0.467622        -1.312188
 O         3.415339        -0.628699        -1.890881
 C         2.655741        -0.629200        -0.536034
 O         3.078857         1.187442         1.065955
 C         1.837838         0.460903         1.294598
 H        -0.881474        -0.095826        -0.059745
 H        -0.013465        -0.935167        -1.340041
 H        -0.072581        -1.716086         0.344929
 H         1.556629         0.909191        -2.037645
 H         1.384821         2.309860        -0.881829
 H         4.690582         1.064235        -2.157992
 H         5.153658        -0.033150        -0.676533
 H         3.159988        -1.439749         0.055016
 H         1.840959        -0.428988         1.982454
 H         1.211138         1.225615         1.800600
