19
Iteration:  3474
 C        -0.020566        -0.730019        -0.130502
 C         1.283053        -0.011636        -0.221789
 C         1.656321         1.237316        -0.993334
 C         3.117349         0.811896        -0.414241
 C         4.294723         0.480600        -1.388652
 O         3.537633        -0.633455        -1.755758
 C         2.666145        -0.597493        -0.491666
 O         3.149310         1.006609         1.058248
 C         1.721486         0.472496         1.241197
 H        -0.813222        -0.100759         0.286698
 H        -0.432945        -1.035586        -1.128524
 H         0.247833        -1.580319         0.576091
 H         1.511985         0.970329        -2.060684
 H         1.391714         2.225290        -0.531971
 H         4.430316         1.125488        -2.187178
 H         5.262481         0.318196        -0.781177
 H         3.148816        -1.205026         0.242433
 H         1.471630        -0.411975         1.910759
 H         0.930369         1.183779         1.449488
