19
Iteration:  4735charge 0 multiplicity 1
 C        -0.102794        -0.746805        -0.135514
 C         1.274409        -0.060402        -0.134085
 C         1.756267         1.151748        -0.932036
 C         3.138988         0.842176        -0.379195
 C         4.326657         0.570562        -1.365680
 O         3.502652        -0.670043        -1.861026
 C         2.741709        -0.613683        -0.528864
 O         3.074234         1.018557         1.019367
 C         1.697383         0.527466         1.307993
 H        -0.886408         0.084558         0.082136
 H        -0.444260        -1.137202        -1.127705
 H        -0.079933        -1.436302         0.673384
 H         1.828353         0.820440        -2.017384
 H         1.282285         2.167987        -0.801221
 H         4.506179         1.258860        -2.134739
 H         5.366000         0.291662        -0.976353
 H         3.222813        -1.501394        -0.118742
 H         1.548336        -0.243625         2.179741
 H         1.192860         1.481385         1.545104
