19
Iteration:  4724charge 0 multiplicity 1
 C        -0.044125        -0.685577        -0.089537
 C         1.313884        -0.046200        -0.181452
 C         1.716302         1.180225        -0.998707
 C         3.120037         0.809638        -0.376088
 C         4.209379         0.548357        -1.393844
 O         3.585407        -0.619454        -1.815576
 C         2.729350        -0.675497        -0.551928
 O         3.113036         0.942187         1.064219
 C         1.670934         0.583833         1.248835
 H        -0.902225        -0.077648         0.350235
 H        -0.346309        -1.218995        -1.023791
 H         0.016876        -1.537569         0.564731
 H         1.673122         1.082679        -2.118660
 H         1.343189         2.200376        -0.680274
 H         4.406413         1.132235        -2.239999
 H         5.122073         0.308225        -0.738776
 H         3.030184        -1.379710         0.226202
 H         1.664558        -0.233471         2.082957
 H         0.991335         1.398531         1.537599
