19
Iteration:   474
 C         0.009749        -0.694738        -0.340322
 C         1.379780        -0.113662        -0.052353
 C         1.719550         1.285345        -0.608981
 C         3.152104         0.720732        -0.307731
 C         4.135585         0.645677        -1.436626
 O         3.113062        -0.086605        -2.092118
 C         2.688419        -0.613399        -0.730436
 O         3.150055         0.837889         1.158677
 C         2.077866         0.017591         1.422268
 H        -0.408501        -1.309736         0.539773
 H        -0.788833         0.033300        -0.599810
 H         0.095972        -1.433241        -1.146105
 H         1.707521         1.399294        -1.660462
 H         1.399841         2.119517        -0.057662
 H         4.504798         1.620798        -2.007843
 H         4.983934        -0.049081        -1.103262
 H         3.185334        -1.544676        -0.457949
 H         2.509055        -0.903891         1.762628
 H         1.390228         0.507454         2.142911
