19
Iteration:  4167charge 0 multiplicity 1
 C         0.023039        -0.827923        -0.274838
 C         1.300253        -0.079884        -0.099516
 C         1.818309         1.175680        -0.932941
 C         3.202311         0.800700        -0.317411
 C         4.219055         0.467164        -1.410388
 O         3.355730        -0.571837        -1.870040
 C         2.728148        -0.614417        -0.518621
 O         3.095961         1.103083         1.112768
 C         1.702498         0.582644         1.324024
 H        -0.716878        -0.191283         0.281689
 H        -0.178134        -0.792827        -1.364659
 H         0.090681        -1.924898         0.010086
 H         1.643594         0.889732        -2.026780
 H         1.351662         2.130712        -0.893805
 H         4.453792         1.325361        -2.012563
 H         5.174939        -0.110830        -0.966887
 H         3.157935        -1.487139        -0.052681
 H         1.666045        -0.343886         2.029080
 H         0.961460         1.382029         1.703736
