19
Iteration:  3748
 C        -0.000975        -0.790335        -0.244138
 C         1.325264        -0.121101        -0.157998
 C         1.747244         1.079563        -0.963820
 C         3.089314         0.828678        -0.329022
 C         4.241037         0.476014        -1.295040
 O         3.349043        -0.513577        -1.815939
 C         2.690738        -0.700581        -0.533986
 O         3.127312         1.230264         1.022465
 C         1.817173         0.489429         1.304672
 H        -0.616635         0.071275         0.054669
 H        -0.149565        -0.974473        -1.390841
 H        -0.190352        -1.800911         0.208043
 H         1.958786         1.017361        -2.150215
 H         1.297442         2.121901        -0.677731
 H         4.515885         1.103669        -2.082346
 H         5.079870        -0.083049        -0.725912
 H         3.127653        -1.478956         0.057002
 H         2.068287        -0.295398         2.060111
 H         1.120996         1.139192         1.805649
