19
Iteration:   571
 C        -0.026552        -0.738525        -0.161721
 C         1.339175        -0.114404        -0.211410
 C         1.647629         1.306660        -0.676934
 C         3.157013         0.758188        -0.296066
 C         4.234163         0.704784        -1.378574
 O         3.221822        -0.178780        -2.101613
 C         2.716206        -0.620416        -0.690802
 O         3.233163         0.802152         1.115452
 C         1.906231         0.093715         1.368725
 H        -0.400443        -1.216525        -1.136268
 H        -0.202486        -1.490919         0.667712
 H        -0.663936         0.126812        -0.111823
 H         1.417057         1.527757        -1.692803
 H         1.334734         2.041835        -0.001894
 H         4.612504         1.510370        -1.969612
 H         5.059532         0.063141        -1.088783
 H         3.279711        -1.513501        -0.307511
 H         2.124335        -0.900606         1.733282
 H         1.227127         0.624223         2.068613
