19
Iteration:  3064
 C         0.020755        -0.849064        -0.245565
 C         1.289166         0.045327        -0.191244
 C         1.750288         1.349317        -0.959180
 C         3.129745         0.859389        -0.389088
 C         4.220237         0.491528        -1.370382
 O         3.409876        -0.708676        -1.760666
 C         2.708264        -0.677230        -0.497532
 O         3.062783         1.126379         1.065349
 C         1.833834         0.445511         1.284348
 H        -0.619348        -0.249746         0.499735
 H        -0.393072        -0.990924        -1.253984
 H         0.254035        -1.883139         0.010201
 H         1.643026         1.207757        -2.025805
 H         1.339975         2.299274        -0.478863
 H         4.524065         1.200271        -2.247939
 H         5.185180         0.230830        -0.797159
 H         2.887055        -1.617077         0.052244
 H         1.843295        -0.490499         1.828494
 H         1.100447         1.056243         1.792628
