19
Iteration:    26
 C        -0.038921        -0.733640        -0.232986
 C         1.322430        -0.020773        -0.083683
 C         1.799110         1.506219        -0.220635
 C         3.138338         0.781391        -0.248922
 C         4.040727         0.955753        -1.440381
 O         3.149403        -0.026655        -2.183532
 C         2.571122        -0.478627        -0.935178
 O         3.308456         0.490583         1.125042
 C         2.137923        -0.415317         1.235983
 H        -0.555127        -1.100678         0.726215
 H        -0.912275        -0.222311        -0.730722
 H         0.208188        -1.504569        -0.894313
 H         1.315922         1.923626        -1.151866
 H         1.514813         2.213246         0.633008
 H         4.178325         1.930588        -2.078261
 H         5.063105         0.611864        -1.286505
 H         2.894501        -1.471527        -0.781677
 H         2.433207        -1.416678         1.280884
 H         1.639227        -0.102904         2.150637
