19
Iteration:  1191
 C        -0.067245        -0.704861        -0.219065
 C         1.354166        -0.067946        -0.140602
 C         1.744467         1.181988        -0.925238
 C         3.149824         0.807928        -0.365929
 C         4.258643         0.580537        -1.328973
 O         3.377507        -0.562292        -1.833520
 C         2.730424        -0.624095        -0.557999
 O         3.053687         1.107540         1.004356
 C         1.842211         0.278255         1.361327
 H        -0.248834        -0.770580        -1.286185
 H        -0.175787        -1.634550         0.307184
 H        -0.742060         0.117038         0.049629
 H         1.630912         0.997504        -1.990489
 H         1.352741         2.138073        -0.588431
 H         4.283522         1.401280        -2.113259
 H         5.161073         0.191774        -1.002668
 H         3.170189        -1.471703         0.040636
 H         2.123186        -0.625198         1.956423
 H         1.150560         0.932583         1.841470
