19
Iteration:  3517charge 0 multiplicity 1
 C         0.003051        -0.667705        -0.246270
 C         1.303865        -0.052281        -0.097787
 C         1.800098         1.144760        -0.943860
 C         3.169981         0.721152        -0.342255
 C         4.269389         0.505014        -1.447184
 O         3.456389        -0.577128        -1.882282
 C         2.696378        -0.736657        -0.433466
 O         3.000035         1.243399         1.040247
 C         1.735391         0.406248         1.336016
 H        -0.823085        -0.007371        -0.375981
 H        -0.157706        -1.335037        -1.119903
 H        -0.231117        -1.235961         0.644026
 H         1.736280         0.909123        -2.031115
 H         1.454935         2.160215        -0.521186
 H         4.321839         1.247697        -2.233484
 H         5.250554         0.085233        -1.009135
 H         3.060998        -1.629694         0.034722
 H         2.062030        -0.334206         2.147181
 H         1.039462         1.059465         1.863567
