19
Iteration:  1095
 C         0.004915        -0.746903        -0.224929
 C         1.337538        -0.071983        -0.085008
 C         1.837368         1.186212        -0.818515
 C         3.204120         0.741880        -0.294800
 C         4.224878         0.595691        -1.416745
 O         3.293035        -0.457498        -1.927035
 C         2.726534        -0.701308        -0.523186
 O         3.104437         1.019957         1.040920
 C         1.729380         0.423539         1.271599
 H         0.214857        -1.702632        -0.699116
 H        -0.523326        -0.929048         0.666889
 H        -0.565333        -0.264009        -0.976924
 H         1.742642         1.160707        -1.925105
 H         1.345718         2.149083        -0.402577
 H         4.293130         1.322471        -2.139368
 H         5.200400         0.235339        -0.957243
 H         3.072764        -1.614535        -0.069806
 H         1.656232        -0.371867         2.044881
 H         1.181151         1.311576         1.565068
