19
Iteration:  1693
 C        -0.059559        -0.747591        -0.263930
 C         1.348267        -0.096269        -0.115782
 C         1.753778         1.177002        -0.898342
 C         3.174115         0.743781        -0.284986
 C         4.228321         0.589397        -1.424782
 O         3.372584        -0.559164        -1.849205
 C         2.726275        -0.669863        -0.385797
 O         3.152261         1.055234         1.063512
 C         1.738300         0.490279         1.205548
 H        -0.549699        -0.303828        -1.156590
 H        -0.021908        -1.819344        -0.362077
 H        -0.817787        -0.545539         0.379453
 H         1.820599         1.007490        -2.030005
 H         1.444000         2.274596        -0.565371
 H         4.275753         1.208973        -2.393052
 H         5.305931         0.435353        -1.143503
 H         3.107622        -1.544870         0.146318
 H         1.839756        -0.316574         2.000451
 H         1.041959         1.244362         1.548474
