19
Iteration:   478charge 0 multiplicity 1
 C        -0.003887        -0.659162        -0.348539
 C         1.395849        -0.115533        -0.047331
 C         1.686237         1.241128        -0.608283
 C         3.151409         0.739407        -0.315823
 C         4.144274         0.617604        -1.439425
 O         3.117319        -0.062244        -2.105776
 C         2.705379        -0.609390        -0.683892
 O         3.183426         0.842078         1.133439
 C         2.037762         0.009506         1.417910
 H        -0.276349        -1.336776         0.400325
 H        -0.775695         0.074305        -0.484030
 H         0.203486        -1.329464        -1.252632
 H         1.483933         1.213336        -1.746420
 H         1.361891         2.190179         0.031733
 H         4.473565         1.550157        -1.925109
 H         4.963496        -0.005533        -1.135542
 H         3.205788        -1.502232        -0.262031
 H         2.510126        -1.021696         1.827716
 H         1.380295         0.440079         2.232476
