19
Iteration:  1234charge 0 multiplicity 1
 C        -0.067760        -0.852111        -0.220586
 C         1.318754        -0.166899        -0.097158
 C         1.867169         1.305915        -0.886701
 C         3.187667         0.768961        -0.257012
 C         4.272364         0.596250        -1.412607
 O         3.367460        -0.599813        -1.916872
 C         2.695038        -0.598479        -0.593602
 O         3.084290         1.021907         1.071928
 C         1.680009         0.509621         1.312692
 H        -0.633724        -0.488164        -1.084938
 H         0.243430        -1.922208        -0.172774
 H        -0.714381        -0.563218         0.657682
 H         2.024071         1.209980        -1.923510
 H         1.507895         2.192653        -0.588087
 H         4.430499         1.436987        -2.192721
 H         5.123283         0.153623        -1.136217
 H         3.198475        -1.465791        -0.081577
 H         1.818566        -0.025706         2.252899
 H         1.087101         1.374874         1.477789
