19
Iteration:  3483
 C        -0.047980        -0.710422        -0.121408
 C         1.273438        -0.033584        -0.274341
 C         1.695338         1.249295        -0.994748
 C         3.138493         0.831866        -0.396661
 C         4.256465         0.533759        -1.387711
 O         3.530905        -0.651935        -1.754930
 C         2.712665        -0.643000        -0.446773
 O         3.159937         1.002498         1.046262
 C         1.629097         0.429541         1.230642
 H        -0.742932        -0.047748         0.277783
 H        -0.353201        -1.310521        -0.956217
 H         0.181508        -1.415813         0.678604
 H         1.701302         1.356523        -2.049812
 H         1.189039         2.267179        -0.722508
 H         4.502533         1.160322        -2.302315
 H         5.298083         0.312996        -0.959645
 H         3.053280        -1.343756         0.284733
 H         1.772026        -0.410951         2.009380
 H         1.212285         1.347756         1.597895
