19
Iteration:  1719charge 0 multiplicity 1
 C         0.024197        -0.688645        -0.369541
 C         1.387876        -0.099910        -0.145438
 C         1.784265         1.169543        -0.883455
 C         3.156221         0.822556        -0.305508
 C         4.238311         0.470091        -1.370947
 O         3.332416        -0.650134        -1.927741
 C         2.728550        -0.634910        -0.487868
 O         3.015175         1.206351         1.094822
 C         1.798115         0.427411         1.369084
 H        -0.807899        -0.186503        -0.878122
 H         0.135959        -1.759901        -0.526452
 H        -0.521086        -0.698698         0.664224
 H         1.675164         1.021602        -1.936396
 H         1.396377         2.085476        -0.504307
 H         4.420468         1.132243        -2.307752
 H         5.170968         0.168940        -0.958739
 H         3.156075        -1.514033         0.039437
 H         2.151543        -0.398835         2.063877
 H         1.003306         1.081068         1.823024
