19
Iteration:   265charge 0 multiplicity 1
 C        -0.101070        -0.609811        -0.196068
 C         1.376966        -0.141143        -0.177671
 C         1.730871         1.360171        -0.533335
 C         3.163898         0.772838        -0.237081
 C         4.152475         0.792337        -1.454546
 O         3.091855        -0.073622        -2.123399
 C         2.740298        -0.588729        -0.806435
 O         3.199677         0.691017         1.187513
 C         2.094996        -0.192143         1.324826
 H        -0.239339        -1.603926         0.307598
 H        -0.794303         0.139011         0.206239
 H        -0.292693        -0.809938        -1.204907
 H         1.571201         1.743657        -1.537527
 H         1.320210         1.929600         0.257386
 H         4.253849         1.721795        -2.045331
 H         5.048984         0.264964        -1.379244
 H         3.288183        -1.477629        -0.547263
 H         2.535903        -1.214831         1.467499
 H         1.491329         0.132822         2.237938
