19
Iteration:  4121charge 0 multiplicity 1
 C        -0.060066        -0.700476        -0.210909
 C         1.334100        -0.041037        -0.164848
 C         1.746878         1.203731        -0.952426
 C         3.114623         0.827019        -0.324000
 C         4.238050         0.563408        -1.325432
 O         3.444845        -0.690020        -1.796657
 C         2.712395        -0.675449        -0.566285
 O         3.110136         1.152858         1.021579
 C         1.767342         0.358466         1.256456
 H        -0.766225        -0.059188         0.343972
 H        -0.367156        -0.803461        -1.236501
 H         0.033401        -1.765149         0.190658
 H         1.827773         1.330242        -1.998404
 H         1.310996         2.152903        -0.587298
 H         4.271390         1.239345        -2.211960
 H         5.252991         0.360612        -0.795204
 H         3.003369        -1.484657         0.160744
 H         2.070965        -0.411644         2.069196
 H         0.999742         1.026090         1.742843
