19
Iteration:  4474
 C         0.070851        -0.782230        -0.302795
 C         1.331466        -0.091757        -0.056048
 C         1.789090         1.151224        -0.931813
 C         3.180688         0.746790        -0.341588
 C         4.231432         0.548997        -1.393172
 O         3.365841        -0.639303        -1.875108
 C         2.698582        -0.659611        -0.523426
 O         3.091008         1.121150         1.100267
 C         1.705055         0.578129         1.301118
 H        -0.924911        -0.298425        -0.004661
 H        -0.200875        -1.008004        -1.379017
 H         0.066045        -1.691679         0.264587
 H         1.598123         1.035762        -1.960517
 H         1.359716         2.200613        -0.655941
 H         4.248095         1.348792        -2.020040
 H         5.261826         0.134627        -1.139336
 H         3.202983        -1.350817         0.255305
 H         1.740509         0.010060         2.256814
 H         1.010244         1.428186         1.583800
