19
Iteration:  3839
 C         0.021252        -0.731110        -0.290438
 C         1.354019        -0.081071        -0.037112
 C         1.761720         1.083012        -0.911745
 C         3.165836         0.821298        -0.376853
 C         4.266598         0.535177        -1.370883
 O         3.361302        -0.582651        -1.916928
 C         2.765024        -0.717542        -0.449930
 O         3.017518         1.137538         1.072228
 C         1.748298         0.513783         1.321525
 H        -0.731934        -0.011011        -0.013643
 H        -0.220441        -1.007164        -1.274860
 H        -0.281101        -1.632071         0.246609
 H         1.648213         0.775666        -1.913049
 H         1.510056         2.274107        -0.925521
 H         4.404018         1.410124        -2.087759
 H         5.225769         0.012556        -1.026324
 H         3.344420        -1.528458        -0.002266
 H         1.876092        -0.137548         2.191522
 H         0.924583         1.303751         1.538814
