19
Iteration:  1121
 C        -0.051262        -0.765270        -0.250034
 C         1.322352        -0.083427        -0.170615
 C         1.754112         1.157601        -0.953263
 C         3.207402         0.765647        -0.249748
 C         4.222772         0.541654        -1.400113
 O         3.326991        -0.477645        -1.990932
 C         2.763637        -0.635230        -0.579859
 O         3.119077         0.997517         1.200061
 C         1.794905         0.499399         1.377122
 H        -0.049846        -1.800140        -0.726392
 H        -0.287331        -0.949107         0.920267
 H        -0.807473        -0.199527        -0.882126
 H         1.759060         1.144418        -2.028828
 H         1.222683         2.003925        -0.604045
 H         4.191261         1.335356        -2.159676
 H         5.212896         0.222278        -1.113654
 H         3.229952        -1.439859         0.016096
 H         1.773844        -0.360941         2.024054
 H         1.207327         1.382189         1.756940
