19
Iteration:  1392
 C        -0.006008        -0.775395        -0.265060
 C         1.349015        -0.039956        -0.131923
 C         1.731205         1.234134        -0.911620
 C         3.136272         0.779832        -0.360091
 C         4.268116         0.505078        -1.272907
 O         3.291689        -0.519994        -1.858142
 C         2.674582        -0.641727        -0.536093
 O         3.103165         1.166969         1.036066
 C         1.885408         0.315758         1.255450
 H        -0.099410        -1.264832        -1.245781
 H        -0.158543        -1.495631         0.490794
 H        -0.885420        -0.131388        -0.290557
 H         1.508191         1.343855        -1.986133
 H         1.282178         2.202849        -0.416862
 H         4.729530         1.178535        -1.922968
 H         5.035287        -0.136810        -0.711959
 H         3.172668        -1.529354        -0.037099
 H         2.317687        -0.471656         1.912470
 H         1.069180         0.848689         1.855230
