19
Iteration:  1108charge 0 multiplicity 1
 C        -0.009328        -0.785880        -0.245024
 C         1.383615        -0.126290        -0.121513
 C         1.727872         1.194358        -0.936929
 C         3.222743         0.749909        -0.300875
 C         4.285596         0.608604        -1.469877
 O         3.294141        -0.444784        -1.871609
 C         2.689680        -0.670627        -0.579032
 O         3.147874         1.001557         1.196156
 C         1.738452         0.462011         1.328024
 H         0.016777        -1.815545        -0.688280
 H        -0.656440        -0.831528         0.751108
 H        -0.659368        -0.075835        -0.759326
 H         1.666547         0.925801        -1.992681
 H         1.441531         2.255942        -0.701160
 H         4.488755         1.429154        -2.039921
 H         5.232733        -0.011306        -1.420737
 H         3.005444        -1.650145        -0.291525
 H         1.795556        -0.082207         2.255863
 H         0.890723         1.183969         1.433537
