19
Iteration:  1253charge 0 multiplicity 1
 C         0.052754        -0.846037        -0.215381
 C         1.305913         0.075457        -0.195472
 C         1.754760         1.270590        -0.907760
 C         3.152465         0.780785        -0.386704
 C         4.218439         0.478409        -1.383910
 O         3.388103        -0.541139        -1.849920
 C         2.712455        -0.650318        -0.494959
 O         3.106537         1.028104         1.095797
 C         1.753545         0.435495         1.273178
 H        -0.597765        -0.502197        -1.062154
 H         0.405201        -1.997589        -0.294127
 H        -0.750198        -0.722269         0.582148
 H         1.484872         1.334894        -1.954515
 H         1.552469         2.215787        -0.393200
 H         4.391372         1.288198        -2.169374
 H         5.252353         0.182320        -0.962333
 H         2.894173        -1.473008         0.190674
 H         1.674260        -0.458060         1.888942
 H         1.132352         1.230150         1.800161
