19
Iteration:  2428charge 0 multiplicity 1
 C         0.016996        -0.726102        -0.189585
 C         1.347335        -0.049191        -0.096675
 C         1.734031         1.204791        -0.976264
 C         3.126788         0.764908        -0.347091
 C         4.278610         0.460814        -1.335988
 O         3.380197        -0.563376        -1.824035
 C         2.691878        -0.656721        -0.524278
 O         3.016304         1.194750         0.984600
 C         1.838498         0.354281         1.272171
 H        -0.782771         0.076420        -0.357973
 H        -0.030667        -1.231360        -1.133851
 H        -0.210887        -1.431000         0.569910
 H         1.592724         1.064712        -2.044723
 H         1.432818         2.208414        -0.441114
 H         4.651295         1.280575        -2.016075
 H         5.097508        -0.022270        -0.755949
 H         3.101470        -1.404607         0.150135
 H         2.075454        -0.420199         1.934834
 H         1.071310         0.968411         1.725145
