19
Iteration:  2393charge 0 multiplicity 1
 C        -0.077052        -0.688502        -0.150669
 C         1.288588        -0.136308        -0.138702
 C         1.726519         1.135156        -0.981547
 C         3.146946         0.732914        -0.346862
 C         4.236412         0.536791        -1.315799
 O         3.475910        -0.560628        -1.825007
 C         2.720442        -0.665150        -0.609523
 O         3.057187         1.162376         1.019862
 C         1.811992         0.400655         1.314227
 H        -0.696155         0.257629        -0.143333
 H        -0.227283        -1.379224        -0.990490
 H        -0.300833        -1.149081         0.803902
 H         1.757027         1.132347        -2.106905
 H         1.423813         2.249218        -0.759532
 H         4.574221         1.391664        -2.080603
 H         5.142087         0.030680        -0.943126
 H         3.291858        -1.367147         0.034975
 H         1.927465        -0.321480         2.062075
 H         1.086161         1.158341         1.580450
