19
Iteration:   988
 C        -0.042508        -0.752316        -0.171460
 C         1.374713        -0.133067        -0.150882
 C         1.883893         1.235331        -0.919931
 C         3.197282         0.816982        -0.339659
 C         4.211373         0.639298        -1.381584
 O         3.268173        -0.452850        -1.971785
 C         2.742912        -0.686886        -0.553157
 O         3.074610         0.899592         1.123484
 C         1.739396         0.422887         1.337288
 H        -0.259019        -1.309537         0.813596
 H        -0.918634         0.043533        -0.442465
 H        -0.043632        -1.490950        -0.975486
 H         1.840545         1.223849        -1.983384
 H         1.505160         2.167308        -0.573082
 H         4.416904         1.632009        -1.892872
 H         5.253436         0.252288        -1.119906
 H         3.195120        -1.578929        -0.121064
 H         1.941934        -0.358958         2.054037
 H         1.050170         1.181738         1.793330
