19
Iteration:  4753
 C        -0.090144        -0.692522        -0.210338
 C         1.352494        -0.111165        -0.102934
 C         1.746332         1.155474        -1.009679
 C         3.196017         0.731393        -0.314138
 C         4.261347         0.518412        -1.344631
 O         3.395643        -0.582971        -1.859468
 C         2.755712        -0.719138        -0.494478
 O         3.057026         1.210034         1.037958
 C         1.786538         0.477643         1.274502
 H        -0.957479        -0.052881        -0.237623
 H        -0.139646        -1.154672        -1.205163
 H        -0.362727        -1.477368         0.563461
 H         1.611744         1.009731        -2.008265
 H         1.492741         2.140495        -0.644415
 H         4.530388         1.274086        -2.146199
 H         5.155162         0.104804        -0.954418
 H         3.150752        -1.413366         0.237272
 H         1.985656        -0.323836         1.989274
 H         0.948004         0.963366         1.799374
