19
Iteration:  4463
 C        -0.016118        -0.809732        -0.301299
 C         1.347454        -0.073135        -0.148587
 C         1.720218         1.144864        -0.941034
 C         3.138972         0.790028        -0.312974
 C         4.252119         0.564122        -1.323111
 O         3.319099        -0.614219        -1.865095
 C         2.748661        -0.690836        -0.477079
 O         3.135961         1.153890         1.044582
 C         1.771405         0.553007         1.328811
 H        -0.792818        -0.031094        -0.019354
 H         0.031666        -1.153724        -1.369932
 H        -0.064310        -1.690499         0.309127
 H         1.672807         0.944811        -1.983858
 H         1.256152         2.130067        -0.546586
 H         4.558547         1.217025        -2.058984
 H         5.161655         0.061338        -0.843817
 H         3.204217        -1.655430         0.001042
 H         1.822825        -0.201134         2.141007
 H         1.069098         1.427453         1.433967
