19
Iteration:  1218
 C        -0.024036        -0.757350        -0.193458
 C         1.357495        -0.072478        -0.149893
 C         1.805034         1.130861        -0.888447
 C         3.191308         0.768243        -0.312293
 C         4.182868         0.562011        -1.380755
 O         3.372400        -0.499223        -1.940101
 C         2.767426        -0.724421        -0.563401
 O         3.124684         1.082748         1.150719
 C         1.699203         0.492513         1.282548
 H        -0.420175        -0.589290        -1.224061
 H        -0.173634        -1.900864        -0.181619
 H        -0.677768        -0.350520         0.602082
 H         1.653283         1.018402        -1.992766
 H         1.398053         2.166157        -0.513298
 H         4.258476         1.351702        -2.099470
 H         5.256011         0.170696        -0.994075
 H         3.194176        -1.642800        -0.127431
 H         1.617870        -0.271062         2.080696
 H         0.948843         1.340942         1.380962
