19
Iteration:  1800
 C        -0.046288        -0.681750        -0.181559
 C         1.365831        -0.092390        -0.109810
 C         1.846629         1.143046        -0.954992
 C         3.123196         0.695704        -0.282671
 C         4.287795         0.620440        -1.439875
 O         3.437888        -0.578105        -1.893319
 C         2.724643        -0.730053        -0.468403
 O         3.017423         1.092704         1.047383
 C         1.691058         0.513232         1.281337
 H        -0.783918         0.097616         0.030729
 H        -0.403266        -0.973398        -1.232772
 H        -0.023326        -1.590765         0.487472
 H         1.679098         0.909449        -1.997172
 H         1.482607         2.089506        -0.674320
 H         4.376902         1.409277        -2.065981
 H         5.225507         0.075827        -1.105581
 H         3.138579        -1.558063         0.145452
 H         1.832812        -0.230626         2.033902
 H         1.031571         1.338211         1.614447
