19
Iteration:  3395charge 0 multiplicity 1
 C         0.038844        -0.739979        -0.305460
 C         1.326203        -0.053394        -0.078082
 C         1.744248         1.258748        -0.944391
 C         3.162660         0.846163        -0.385517
 C         4.149926         0.459363        -1.446773
 O         3.450709        -0.761675        -1.781853
 C         2.688290        -0.585356        -0.418514
 O         3.073914         1.108831         1.094324
 C         1.782715         0.505476         1.250094
 H        -0.825433        -0.230955         0.087587
 H        -0.058400        -0.963815        -1.354557
 H        -0.048450        -1.785017         0.067372
 H         1.504871         1.171888        -1.997447
 H         1.643441         2.344236        -0.545718
 H         4.184007         1.197879        -2.281184
 H         5.132859         0.225684        -1.006691
 H         3.233858        -1.225891         0.232503
 H         1.796573        -0.420654         1.934956
 H         1.084370         1.256737         1.642439
