19
Iteration:  4102
 C        -0.104315        -0.718088        -0.250639
 C         1.264063         0.030008        -0.151513
 C         1.644764         1.256296        -0.964933
 C         3.080277         0.821772        -0.396038
 C         4.272596         0.534257        -1.378367
 O         3.597177        -0.660243        -1.766167
 C         2.644734        -0.586792        -0.486655
 O         3.091456         1.032050         1.018924
 C         1.898353         0.395696         1.322524
 H        -1.071222        -0.119389         0.016701
 H        -0.294479        -1.061543        -1.301864
 H        -0.094601        -1.702248         0.343686
 H         1.256244         0.861851        -1.997757
 H         1.277249         2.254257        -0.800576
 H         4.430346         1.126726        -2.249915
 H         5.219683         0.200085        -0.741093
 H         3.059587        -1.284517         0.185996
 H         2.065768        -0.612273         1.807884
 H         1.488543         1.013853         2.189757
