19
Iteration:  4347
 C         0.007364        -0.793025        -0.319903
 C         1.371465        -0.015320        -0.036505
 C         1.758769         1.162661        -0.877670
 C         3.192983         0.786303        -0.366392
 C         4.320892         0.494950        -1.387526
 O         3.353489        -0.631914        -1.914756
 C         2.728786        -0.683796        -0.457340
 O         3.011068         1.227374         1.037815
 C         1.710795         0.507923         1.375607
 H        -0.854616        -0.361100         0.179544
 H        -0.172709        -0.821136        -1.402690
 H        -0.010987        -1.867917        -0.043317
 H         1.737529         0.806273        -1.925288
 H         1.309529         2.102620        -0.598075
 H         4.552090         1.300686        -2.208870
 H         5.240342        -0.007977        -1.065080
 H         3.165312        -1.527811         0.025211
 H         1.912623        -0.382501         1.981060
 H         0.947972         1.144025         1.758170
