19
Iteration:  4979charge 0 multiplicity 1
 C        -0.018681        -0.806606        -0.261180
 C         1.358678        -0.077066        -0.062736
 C         1.718142         1.225623        -0.949571
 C         3.142270         0.818009        -0.352261
 C         4.332375         0.535809        -1.299855
 O         3.325982        -0.645027        -1.867592
 C         2.688355        -0.643993        -0.504331
 O         3.093662         1.171649         1.046266
 C         1.795910         0.459394         1.280516
 H        -0.862740        -0.143019         0.015418
 H        -0.053202        -1.111283        -1.312336
 H        -0.226929        -1.763465         0.311607
 H         1.781642         1.049767        -1.997589
 H         1.397487         2.289812        -0.829348
 H         4.577573         1.184723        -2.129521
 H         5.114271        -0.094979        -0.919174
 H         3.170313        -1.488484        -0.044521
 H         1.817951        -0.319575         2.084945
 H         1.118171         1.260992         1.587941
