19
Iteration:  3863
 C         0.026579        -0.782100        -0.289766
 C         1.377076        -0.062891        -0.177419
 C         1.789941         1.230064        -0.918955
 C         3.194028         0.854606        -0.280198
 C         4.229407         0.391076        -1.386074
 O         3.316892        -0.566356        -1.810168
 C         2.756471        -0.734031        -0.509877
 O         3.008730         1.284221         1.029330
 C         1.779444         0.392786         1.322521
 H        -0.875198        -0.183841        -0.356605
 H         0.015731        -1.389611        -1.155702
 H        -0.135006        -1.497920         0.470817
 H         1.574153         1.392543        -2.001936
 H         1.329292         2.118970        -0.382529
 H         4.437726         1.239229        -2.192270
 H         5.137714        -0.154082        -1.013626
 H         3.135485        -1.684476        -0.004867
 H         2.174889        -0.361434         2.047254
 H         0.912837         0.990758         1.790848
