19
Iteration:  4104
 C        -0.093745        -0.715771        -0.248579
 C         1.253851         0.021801        -0.165038
 C         1.643759         1.266933        -0.959322
 C         3.085095         0.814369        -0.403080
 C         4.267596         0.541331        -1.379487
 O         3.589360        -0.664816        -1.757298
 C         2.654470        -0.595486        -0.481794
 O         3.096346         1.043764         1.030324
 C         1.902311         0.387732         1.319194
 H        -1.032929        -0.174852         0.052103
 H        -0.346893        -1.027912        -1.303454
 H        -0.083296        -1.631877         0.320847
 H         1.275800         0.797726        -1.967970
 H         1.279265         2.272213        -0.808065
 H         4.494799         1.200279        -2.218021
 H         5.120689         0.177881        -0.817150
 H         3.057524        -1.365628         0.146571
 H         2.027765        -0.556489         1.767929
 H         1.437548         1.017955         2.107062
