19
Iteration:  2599
 C         0.020701        -0.678835        -0.324806
 C         1.352535        -0.108502        -0.127632
 C         1.777080         1.088287        -0.904430
 C         3.155559         0.788715        -0.332658
 C         4.200095         0.556344        -1.416751
 O         3.379554        -0.593853        -1.851903
 C         2.753068        -0.712541        -0.522462
 O         3.078277         1.147612         1.148521
 C         1.751561         0.505325         1.316380
 H        -0.727755         0.083963        -0.353704
 H        -0.074043        -1.451245        -1.130338
 H        -0.312212        -1.111081         0.708066
 H         1.693224         0.910537        -1.937480
 H         1.425597         2.049251        -0.709071
 H         4.222350         1.214786        -2.328809
 H         5.193363         0.182719        -1.194300
 H         3.201265        -1.534132         0.057134
 H         1.821933        -0.229748         2.258901
 H         0.861501         1.181129         1.466488
