19
Iteration:  3760
 C        -0.032931        -0.731721        -0.225513
 C         1.359214        -0.073738        -0.136307
 C         1.693158         1.199156        -1.010315
 C         3.174565         0.838348        -0.337246
 C         4.263267         0.451256        -1.314996
 O         3.393166        -0.605096        -1.820016
 C         2.734435        -0.648640        -0.506420
 O         3.021622         1.229125         1.012140
 C         1.840320         0.368729         1.330884
 H        -0.894392        -0.289397         0.251679
 H        -0.336830        -0.864694        -1.316854
 H         0.006199        -1.724511         0.300130
 H         1.628206         0.927085        -2.144354
 H         1.164030         2.246670        -0.795623
 H         4.620550         1.116271        -2.067139
 H         5.239572         0.099060        -0.800792
 H         3.136776        -1.500795         0.021980
 H         2.096691        -0.479287         2.009421
 H         1.072327         1.072230         1.697168
