19
Iteration:  1149
 C        -0.010249        -0.738330        -0.243837
 C         1.324573        -0.098231        -0.111206
 C         1.715177         1.321137        -0.874037
 C         3.143749         0.790552        -0.371888
 C         4.267814         0.558433        -1.340679
 O         3.406370        -0.586116        -1.811234
 C         2.659318        -0.625885        -0.632510
 O         3.091663         1.064213         1.012002
 C         1.842731         0.305822         1.308882
 H        -0.070642        -1.630316        -0.813115
 H        -0.344605        -1.048264         0.665497
 H        -0.755029        -0.031916        -0.532670
 H         1.256469         1.388896        -1.896060
 H         1.511527         2.300929        -0.255568
 H         4.266868         1.267011        -2.193370
 H         5.380999         0.391463        -1.003561
 H         2.962317        -1.420872         0.069669
 H         2.115730        -0.585304         1.972539
 H         1.147601         0.975381         1.783939
