19
Iteration:  1613
 C         0.034530        -0.685050        -0.239649
 C         1.394410        -0.060742        -0.077577
 C         1.789553         1.180308        -0.935377
 C         3.142266         0.843280        -0.352196
 C         4.187986         0.538158        -1.343618
 O         3.385246        -0.541480        -1.957522
 C         2.646930        -0.718292        -0.541701
 O         3.018451         1.169772         1.075148
 C         1.869121         0.330139         1.364947
 H         0.037937        -1.569294        -0.858245
 H        -0.568993        -1.014409         0.652101
 H        -0.669389         0.052951        -0.633178
 H         1.675446         0.904997        -1.997595
 H         1.351459         2.159157        -0.574387
 H         4.595095         1.231538        -1.982013
 H         4.998351        -0.120567        -0.806112
 H         3.033032        -1.676837        -0.073770
 H         2.038093        -0.621064         1.856795
 H         1.027678         0.897613         1.863962
