19
Iteration:  1762
 C        -0.066427        -0.803809        -0.207443
 C         1.232786        -0.047887        -0.250241
 C         1.772479         1.253667        -0.893673
 C         3.138612         0.796802        -0.427574
 C         4.259870         0.554555        -1.328095
 O         3.415800        -0.638174        -1.832844
 C         2.698335        -0.612963        -0.455626
 O         3.118665         1.085493         1.027359
 C         1.829344         0.411544         1.286596
 H        -0.845207        -0.050894        -0.493112
 H        -0.165694        -1.697970        -0.774561
 H        -0.411020        -0.945115         0.834439
 H         1.922405         1.187019        -1.973812
 H         1.339665         2.253036        -0.629266
 H         4.770363         1.318418        -2.078075
 H         5.053911         0.190212        -0.758444
 H         3.240547        -1.305211         0.191372
 H         1.814078        -0.482616         2.004391
 H         1.104708         1.170969         1.702059
