19
Iteration:  3075
 C         0.041657        -0.827312        -0.268350
 C         1.300870         0.010026        -0.150079
 C         1.728757         1.352914        -0.893523
 C         3.102412         0.826885        -0.390774
 C         4.271393         0.445568        -1.332400
 O         3.415680        -0.698379        -1.748947
 C         2.654687        -0.592659        -0.530465
 O         3.069478         1.111123         0.970763
 C         1.792181         0.432149         1.289927
 H        -0.966303        -0.716790         0.272347
 H        -0.305490        -0.861670        -1.307302
 H         0.346975        -1.793155         0.139831
 H         1.584765         1.342688        -1.985533
 H         1.377419         2.362704        -0.516113
 H         4.476858         1.095242        -2.265401
 H         5.207097         0.052452        -0.799709
 H         3.142100        -1.165516         0.264880
 H         2.199159        -0.357055         1.868993
 H         1.222614         1.087844         1.914978
