19
Iteration:   280charge 0 multiplicity 1
 C        -0.074029        -0.641746        -0.196293
 C         1.361247        -0.126025        -0.043658
 C         1.803001         1.235203        -0.527103
 C         3.222515         0.747523        -0.271625
 C         4.091954         0.847165        -1.490300
 O         3.104892        -0.022510        -2.130826
 C         2.761722        -0.582551        -0.804304
 O         3.254047         0.686807         1.182553
 C         1.925863        -0.171056         1.297183
 H        -0.099036        -1.746548        -0.165175
 H        -0.604872        -0.186213         0.681178
 H        -0.590730        -0.334085        -1.168156
 H         1.575577         1.335863        -1.614478
 H         1.594538         2.328336        -0.089866
 H         4.328875         1.779734        -2.024231
 H         5.007534         0.261623        -1.305260
 H         3.281030        -1.546126        -0.591743
 H         2.152862        -1.176228         1.727105
 H         1.255949         0.377640         1.982829
