19
Iteration:  2973
 C        -0.006822        -0.780617        -0.219684
 C         1.293821         0.004861        -0.175201
 C         1.807997         1.303476        -0.923836
 C         3.108974         0.826363        -0.448372
 C         4.226889         0.500200        -1.383044
 O         3.454659        -0.635057        -1.815625
 C         2.669568        -0.613020        -0.411700
 O         3.065601         1.171269         1.025560
 C         1.771246         0.281679         1.275329
 H        -1.006779        -0.271158        -0.192895
 H        -0.096562        -1.602524        -0.949659
 H        -0.183918        -1.354277         0.689351
 H         1.768752         1.127288        -2.042242
 H         1.518303         2.243055        -0.331386
 H         4.423469         1.213503        -2.282112
 H         5.192630         0.259857        -1.021313
 H         3.271528        -1.217129         0.304648
 H         1.991213        -0.670686         1.769538
 H         1.091065         0.844070         1.960848
