19
Iteration:   515
 C        -0.069773        -0.692428        -0.283265
 C         1.324470        -0.087018        -0.191789
 C         1.762350         1.345333        -0.537211
 C         3.129632         0.802959        -0.259109
 C         4.052621         0.770667        -1.483710
 O         3.304217        -0.303779        -2.071185
 C         2.689028        -0.637189        -0.711827
 O         3.223892         0.732471         1.153221
 C         2.023851         0.089451         1.382841
 H         0.105971        -1.822951        -0.361823
 H        -0.831446        -0.480858         0.521410
 H        -0.601794        -0.426668        -1.168822
 H         1.456182         1.577087        -1.548946
 H         1.422645         2.170957         0.045492
 H         3.970919         1.619016        -2.101046
 H         5.095627         0.463754        -1.363234
 H         3.253411        -1.488179        -0.245133
 H         2.207781        -0.857452         1.862632
 H         1.283148         0.703759         1.882160
