19
Iteration:  1003charge 0 multiplicity 1
 C        -0.052978        -0.697634        -0.193265
 C         1.342852        -0.084046        -0.134628
 C         1.741471         1.171494        -0.863096
 C         3.213007         0.620555        -0.247334
 C         4.264191         0.647515        -1.383569
 O         3.320202        -0.410498        -1.957223
 C         2.795122        -0.708835        -0.576741
 O         3.125419         1.038824         1.105388
 C         1.731143         0.370403         1.264864
 H        -0.247406        -1.423001         0.571193
 H        -0.730396         0.042251         0.007044
 H        -0.304144        -1.203328        -1.133679
 H         1.650797         1.165471        -1.958289
 H         1.362233         2.075815        -0.374723
 H         4.197793         1.493760        -2.229775
 H         5.205856         0.180608        -1.225035
 H         3.277871        -1.641043        -0.132780
 H         1.740375        -0.423158         2.058276
 H         1.057569         1.267248         1.482998
