19
Iteration:  4431charge 0 multiplicity 1
 C        -0.033808        -0.743871        -0.190489
 C         1.338839         0.003514        -0.151137
 C         1.705410         1.198312        -0.951060
 C         3.140117         0.798902        -0.371494
 C         4.341364         0.517975        -1.271560
 O         3.403190        -0.683399        -1.878864
 C         2.725346        -0.581775        -0.528304
 O         2.970523         1.254946         0.993351
 C         1.848240         0.291868         1.337004
 H        -0.921476        -0.073291        -0.407985
 H        -0.121875        -1.374591        -1.105270
 H        -0.216977        -1.280423         0.711436
 H         1.567016         1.027972        -1.955782
 H         1.441372         2.220336        -0.686703
 H         4.676961         1.139847        -2.026569
 H         5.203804         0.040249        -0.721841
 H         3.173549        -1.420056         0.025357
 H         2.178945        -0.661156         1.830125
 H         1.004843         0.845252         1.856869
