19
Iteration:  1759
 C        -0.086024        -0.807728        -0.216205
 C         1.242360        -0.042071        -0.224814
 C         1.781575         1.244299        -0.895489
 C         3.144031         0.790677        -0.426784
 C         4.267773         0.546405        -1.316098
 O         3.398169        -0.629197        -1.824324
 C         2.699694        -0.595429        -0.462535
 O         3.104711         1.090015         0.997244
 C         1.835852         0.397359         1.298273
 H        -0.873495        -0.133439        -0.644293
 H        -0.137161        -1.690329        -0.788721
 H        -0.245750        -0.917521         0.808400
 H         1.898871         1.219129        -2.027768
 H         1.389423         2.347778        -0.602543
 H         4.712320         1.273150        -2.114233
 H         5.164192         0.223592        -0.690285
 H         3.130033        -1.293790         0.270582
 H         1.888017        -0.460764         1.993292
 H         1.157233         1.074987         1.777237
