19
Iteration:  3506charge 0 multiplicity 1
 C        -0.085181        -0.713502        -0.170010
 C         1.339641        -0.074431        -0.162459
 C         1.837437         1.197781        -0.924568
 C         3.158704         0.740705        -0.374267
 C         4.205917         0.547109        -1.368681
 O         3.466871        -0.664605        -1.828643
 C         2.689782        -0.691806        -0.535713
 O         3.009442         1.180785         1.086785
 C         1.793352         0.445483         1.247234
 H        -0.803587         0.059662        -0.150231
 H        -0.074837        -1.417669        -1.026411
 H        -0.185241        -1.331750         0.718193
 H         1.658154         1.095697        -2.012566
 H         1.683120         2.324672        -0.766530
 H         4.260252         1.313507        -2.134676
 H         5.310207         0.397433        -1.079527
 H         3.121526        -1.381503         0.145366
 H         1.893817        -0.459270         1.967475
 H         0.993841         1.142404         1.501798
