19
Iteration:  4329charge 0 multiplicity 1
 C         0.053268        -0.829542        -0.312375
 C         1.285050        -0.071791        -0.191755
 C         1.820760         1.294371        -0.948767
 C         3.138422         0.842926        -0.296365
 C         4.216739         0.406754        -1.372768
 O         3.324671        -0.626846        -1.758172
 C         2.686740        -0.630892        -0.460534
 O         3.022823         1.265800         1.049425
 C         1.849729         0.380681         1.241878
 H        -0.739783        -0.470111         0.339230
 H        -0.262493        -0.988440        -1.334402
 H         0.240170        -1.900812         0.014320
 H         1.602630         1.422302        -2.107413
 H         1.537578         2.251921        -0.420545
 H         4.508589         1.045388        -2.196844
 H         5.104167        -0.045533        -0.921854
 H         3.249008        -1.516821         0.057300
 H         2.212602        -0.297423         2.027492
 H         1.126208         0.994940         1.802309
