19
Iteration:   728
 C        -0.135286        -0.756701        -0.182116
 C         1.360675        -0.072491        -0.104372
 C         1.774958         1.410464        -0.705707
 C         3.105049         0.806231        -0.349851
 C         4.168090         0.617320        -1.408590
 O         3.407099        -0.415200        -2.065917
 C         2.717592        -0.577681        -0.686494
 O         3.083913         0.937069         1.105516
 C         1.906908         0.086008         1.372448
 H        -0.226042        -1.273143         0.793805
 H        -0.871238         0.028130        -0.245461
 H        -0.106339        -1.540216        -1.067724
 H         1.620479         1.445015        -1.784157
 H         1.611573         2.362822        -0.230082
 H         4.597571         1.462793        -2.066429
 H         4.981024         0.117575        -0.966737
 H         3.137276        -1.496350        -0.211902
 H         2.168013        -0.876717         1.780577
 H         1.208132         0.686429         1.963414
