19
Iteration:  4936
 C        -0.005248        -0.732106        -0.281598
 C         1.360251        -0.082043        -0.114508
 C         1.862558         1.188327        -0.895255
 C         3.229327         0.790332        -0.291046
 C         4.204700         0.610242        -1.523380
 O         3.378150        -0.749685        -1.830358
 C         2.758530        -0.643329        -0.536189
 O         3.042333         1.112761         1.138880
 C         1.672777         0.506539         1.328760
 H        -0.827514        -0.068780        -0.246014
 H         0.160041        -1.120654        -1.277201
 H        -0.047529        -1.529073         0.484988
 H         1.622836         1.032613        -1.960843
 H         1.283108         2.183333        -0.742863
 H         3.970180         1.425042        -2.234745
 H         5.215883         0.391593        -1.331908
 H         2.951202        -1.532856         0.100033
 H         1.768752        -0.096148         2.231858
 H         0.939623         1.264574         1.634825
