19
Iteration:  1472charge 0 multiplicity 1
 C        -0.082009        -0.779516        -0.210270
 C         1.257046        -0.002102        -0.112795
 C         1.730528         1.245020        -0.960488
 C         3.107077         0.809788        -0.350188
 C         4.252983         0.614723        -1.393290
 O         3.471863        -0.693623        -1.912157
 C         2.767017        -0.625992        -0.549750
 O         3.118519         1.038833         1.150568
 C         1.769358         0.434925         1.308857
 H        -0.570805        -0.558399        -1.119260
 H        -0.080122        -1.880110        -0.184750
 H        -0.767943        -0.500263         0.530342
 H         1.913599         1.123450        -2.060154
 H         1.461877         2.300745        -0.472102
 H         4.261554         1.301710        -2.291734
 H         5.259720         0.402550        -1.027101
 H         3.170988        -1.433429         0.092149
 H         1.840459        -0.503609         1.951067
 H         1.197534         1.278923         1.812889
