19
Iteration:  4537charge 0 multiplicity 1
 C        -0.082356        -0.685688        -0.298940
 C         1.343336        -0.009911        -0.052307
 C         1.665466         1.174049        -0.955781
 C         3.115479         0.787769        -0.458289
 C         4.330705         0.542991        -1.303254
 O         3.420588        -0.656909        -1.821199
 C         2.724793        -0.677640        -0.544677
 O         3.030616         1.192262         0.982541
 C         1.844173         0.388886         1.399141
 H        -0.830837        -0.207806         0.334677
 H        -0.300189        -0.935672        -1.340997
 H         0.149263        -1.678057         0.098819
 H         1.606663         0.960840        -2.011829
 H         1.378370         2.270489        -0.530842
 H         4.766630         1.139720        -2.158699
 H         5.129494         0.082372        -0.603932
 H         3.202335        -1.502567         0.065976
 H         2.098283        -0.451182         2.027751
 H         1.032639         0.937113         1.932460
