19
Iteration:  3472
 C        -0.016619        -0.737060        -0.134238
 C         1.291079         0.001146        -0.196306
 C         1.661473         1.229856        -0.998412
 C         3.110700         0.812201        -0.408792
 C         4.304276         0.482163        -1.370904
 O         3.529959        -0.649849        -1.763691
 C         2.668384        -0.585658        -0.512832
 O         3.129379         1.010322         1.058661
 C         1.748997         0.488544         1.231686
 H        -0.782846        -0.160656         0.283166
 H        -0.415435        -0.993287        -1.091551
 H         0.118107        -1.657164         0.483460
 H         1.504332         0.945592        -1.993072
 H         1.379839         2.244292        -0.508739
 H         4.389914         1.198304        -2.232412
 H         5.238884         0.247194        -0.731730
 H         3.148462        -1.225943         0.183668
 H         1.497446        -0.381055         1.941181
 H         0.915291         1.139417         1.451833
