19
Iteration:  3566
 C         0.038716        -0.796772        -0.326960
 C         1.335911        -0.030307        -0.176171
 C         1.652662         1.283527        -0.887324
 C         3.169743         0.831521        -0.348565
 C         4.205752         0.489438        -1.365995
 O         3.391183        -0.719994        -1.755977
 C         2.755904        -0.651105        -0.476292
 O         3.129838         1.140394         1.008887
 C         1.751539         0.493471         1.300700
 H        -0.936030        -0.164436        -0.194503
 H        -0.083641        -1.014054        -1.421716
 H        -0.096594        -1.769621         0.249190
 H         1.619051         1.187577        -1.941167
 H         1.334729         2.201074        -0.441759
 H         4.231249         1.212302        -2.213742
 H         5.158805         0.197875        -0.977688
 H         2.981424        -1.538062         0.200682
 H         1.959867        -0.343945         1.943058
 H         1.329369         1.287766         1.949978
