19
Iteration:  1168
 C        -0.107726        -0.718470        -0.237934
 C         1.260272        -0.019839        -0.217626
 C         1.646641         1.299939        -0.816063
 C         3.125324         0.841420        -0.344891
 C         4.228666         0.514641        -1.424087
 O         3.513815        -0.646688        -1.903007
 C         2.724636        -0.642039        -0.520271
 O         3.059322         1.149845         1.080677
 C         1.928000         0.276732         1.344200
 H        -0.099136        -1.397563        -1.106723
 H        -0.158386        -1.318662         0.688406
 H        -0.942474         0.015569        -0.459146
 H         1.778915         1.331536        -1.882143
 H         1.172400         2.163588        -0.419163
 H         4.557798         1.300442        -2.224552
 H         5.022636         0.077938        -0.930185
 H         2.980779        -1.493332         0.172151
 H         2.363063        -0.669748         1.709227
 H         1.239578         0.736086         2.036902
