19
Iteration:  3979
 C        -0.052796        -0.747991        -0.270581
 C         1.283778         0.008675        -0.129257
 C         1.698723         1.302725        -0.910982
 C         3.143131         0.833085        -0.404109
 C         4.223888         0.495538        -1.380261
 O         3.495681        -0.690832        -1.768857
 C         2.724924        -0.656025        -0.502995
 O         3.040355         1.160665         0.986474
 C         1.818876         0.345785         1.337117
 H        -0.856712        -0.273571         0.379131
 H        -0.415722        -0.770939        -1.333152
 H        -0.004994        -1.921036        -0.084030
 H         1.575405         1.257752        -1.940730
 H         1.318096         2.336984        -0.778095
 H         4.732845         1.014911        -2.181504
 H         5.125566         0.106626        -0.694453
 H         3.331452        -1.204188         0.206543
 H         2.173852        -0.542203         1.972777
 H         1.110698         0.920059         1.933223
