19
Iteration:  1416charge 0 multiplicity 1
 C        -0.031655        -0.729301        -0.316210
 C         1.336851        -0.047534        -0.095234
 C         1.734187         1.162944        -0.878756
 C         3.160089         0.819106        -0.313391
 C         4.252935         0.449365        -1.450807
 O         3.384472        -0.540200        -1.943080
 C         2.770021        -0.589050        -0.479734
 O         3.032202         1.147233         1.087628
 C         1.798791         0.327492         1.390167
 H        -0.429618        -0.736823        -1.312645
 H        -0.013924        -1.692732         0.157710
 H        -0.774712        -0.188205         0.225921
 H         1.745680         1.051063        -1.988210
 H         1.215963         2.237612        -0.743887
 H         4.588829         1.164635        -2.193838
 H         5.159983        -0.053903        -0.953210
 H         3.184398        -1.516811        -0.007201
 H         2.071029        -0.382566         2.215102
 H         1.084346         1.113685         1.844409
