19
Iteration:  2907charge 0 multiplicity 1
 C        -0.063007        -0.774931        -0.314656
 C         1.313864        -0.147314        -0.093962
 C         1.743418         1.113755        -0.948332
 C         3.161924         0.801288        -0.378715
 C         4.317551         0.581700        -1.406810
 O         3.363589        -0.585753        -1.846350
 C         2.728442        -0.739890        -0.497801
 O         3.091110         1.176762         1.114899
 C         1.806315         0.530878         1.369282
 H        -0.849799        -0.402641         0.390428
 H        -0.237741        -0.571017        -1.395011
 H        -0.107053        -1.815888         0.050102
 H         1.653499         1.009387        -2.116485
 H         1.296249         2.096699        -0.547130
 H         4.452848         1.388372        -2.267084
 H         5.284598         0.293716        -0.981153
 H         3.132712        -1.607105         0.083763
 H         1.688076        -0.151719         2.168532
 H         1.066471         1.338621         1.403543
