19
Iteration:  4680
 C        -0.043105        -0.757094        -0.222182
 C         1.282894        -0.036402        -0.090656
 C         1.800000         1.213457        -0.980964
 C         3.169903         0.798183        -0.343325
 C         4.267466         0.405805        -1.425734
 O         3.418224        -0.606570        -1.844594
 C         2.732709        -0.679309        -0.463477
 O         3.004235         1.261026         1.063973
 C         1.804738         0.419960         1.286125
 H        -0.927142        -0.313270         0.326320
 H        -0.369340        -0.756145        -1.295313
 H        -0.045021        -1.772004         0.130395
 H         1.721453         1.014680        -2.056543
 H         1.498417         2.290484        -0.664375
 H         4.515502         1.126113        -2.158047
 H         5.233712        -0.030820        -0.941807
 H         3.330327        -1.439756         0.069828
 H         1.805093        -0.504900         1.967975
 H         1.055965         0.967504         1.824793
