19
Iteration:  3988
 C        -0.039102        -0.760792        -0.280870
 C         1.275241        -0.047310        -0.176299
 C         1.657202         1.281409        -0.857208
 C         3.088908         0.887376        -0.406661
 C         4.244233         0.482799        -1.338502
 O         3.504742        -0.730169        -1.764248
 C         2.676842        -0.582520        -0.484365
 O         3.113592         1.127319         0.969604
 C         1.856328         0.409147         1.257495
 H        -0.924636        -0.405506         0.229410
 H        -0.327108        -0.776707        -1.372272
 H         0.110283        -1.825792         0.058809
 H         1.618804         1.323021        -1.899878
 H         1.329564         2.170116        -0.291827
 H         4.595121         1.209339        -2.148019
 H         5.024407         0.035331        -0.655604
 H         3.077372        -1.160670         0.389899
 H         1.969964        -0.626009         1.792178
 H         1.274025         1.082592         1.873618
