19
Iteration:  3815
 C        -0.044114        -0.726395        -0.212657
 C         1.293019        -0.085506        -0.220154
 C         1.696044         1.116815        -0.955990
 C         3.127006         0.744436        -0.343610
 C         4.215601         0.668245        -1.378441
 O         3.498468        -0.681792        -1.755640
 C         2.693988        -0.659318        -0.480393
 O         3.164949         1.061149         1.063640
 C         1.766863         0.537973         1.241969
 H        -0.748553        -0.119697         0.351675
 H        -0.539534        -0.864306        -1.211390
 H        -0.184812        -1.775931         0.192555
 H         1.838518         1.220972        -2.038345
 H         1.202714         2.157850        -0.645322
 H         4.188400         1.293954        -2.223027
 H         5.275948         0.531850        -0.971576
 H         3.164331        -1.376868         0.128891
 H         1.758107        -0.297129         1.926407
 H         1.211067         1.417573         1.586242
