19
Iteration:  1394
 C        -0.009565        -0.773230        -0.258973
 C         1.354893        -0.055087        -0.121850
 C         1.734880         1.224717        -0.913284
 C         3.143343         0.801333        -0.363130
 C         4.292667         0.496480        -1.281241
 O         3.285326        -0.517516        -1.844593
 C         2.662709        -0.646080        -0.551583
 O         3.097556         1.164833         1.048273
 C         1.882102         0.331313         1.253725
 H        -0.116103        -1.172904        -1.247412
 H        -0.213495        -1.561480         0.443702
 H        -0.872087        -0.175445        -0.315278
 H         1.485968         1.311323        -1.996724
 H         1.246715         2.223248        -0.425560
 H         4.719743         1.194276        -1.996399
 H         5.053184        -0.151872        -0.723081
 H         3.205616        -1.493911        -0.096294
 H         2.332773        -0.492646         1.879095
 H         1.051671         0.837690         1.884183
