19
Iteration:    42charge 0 multiplicity 1
 C        -0.092384        -0.711917        -0.251946
 C         1.293176        -0.085134        -0.094346
 C         1.645556         1.371485        -0.260607
 C         3.175787         0.865749        -0.195816
 C         4.087554         0.899174        -1.553198
 O         3.194831         0.042125        -2.242320
 C         2.571800        -0.391719        -0.941520
 O         3.387957         0.424271         1.221568
 C         2.132675        -0.304426         1.323306
 H        -0.146647        -1.379985         0.563156
 H        -0.829386         0.086253        -0.312260
 H        -0.189289        -1.481255        -1.158080
 H         1.589730         1.728524        -1.268680
 H         1.389397         2.105429         0.461232
 H         4.117607         1.841207        -2.003846
 H         5.047361         0.302133        -1.432672
 H         2.851758        -1.501890        -0.682632
 H         2.366652        -1.444301         1.505495
 H         1.465264        -0.009054         2.172514
