19
Iteration:   636charge 0 multiplicity 1
 C         0.023767        -0.741323        -0.257012
 C         1.344642        -0.084975        -0.177338
 C         1.802530         1.383758        -0.615689
 C         3.132180         0.888082        -0.287546
 C         4.003636         0.769609        -1.554050
 O         3.319060        -0.425536        -1.931944
 C         2.670161        -0.556184        -0.640212
 O         3.251362         0.717800         1.175474
 C         1.866008         0.101763         1.259392
 H        -0.741310         0.050775        -0.548338
 H        -0.111908        -1.587004        -0.972983
 H        -0.251519        -1.065814         0.669517
 H         1.815932         1.575379        -1.681158
 H         1.394720         2.227469        -0.069679
 H         4.015463         1.527734        -2.240865
 H         4.972299         0.433059        -1.282830
 H         3.071723        -1.509738        -0.225936
 H         2.121671        -0.862207         1.733223
 H         1.228970         0.821101         1.823115
