19
Iteration:  4265charge 0 multiplicity 1
 C        -0.128486        -0.686245        -0.226650
 C         1.367164        -0.176886        -0.137995
 C         1.763772         1.041396        -0.959161
 C         3.151393         0.716570        -0.277009
 C         4.206625         0.674716        -1.302146
 O         3.424886        -0.563740        -1.855100
 C         2.801151        -0.801227        -0.579170
 O         3.121941         1.154794         1.052478
 C         1.751468         0.568990         1.249139
 H        -0.800894         0.178451         0.011862
 H        -0.427761        -1.078929        -1.210430
 H        -0.233508        -1.403157         0.634066
 H         1.735977         1.222982        -2.070824
 H         1.417920         1.987943        -0.549942
 H         4.409324         1.430086        -2.038597
 H         5.181765         0.114565        -0.975644
 H         3.201834        -1.634909         0.057919
 H         1.722052        -0.139520         2.161538
 H         0.847802         1.235915         1.446462
