19
Iteration:  1515
 C        -0.074987        -0.772038        -0.238962
 C         1.363847        -0.108655        -0.196319
 C         1.728260         1.233468        -0.893038
 C         3.209583         0.803308        -0.242614
 C         4.242435         0.506172        -1.306596
 O         3.313649        -0.556721        -1.907592
 C         2.766156        -0.680193        -0.581856
 O         3.061197         1.205116         1.055435
 C         1.871890         0.379729         1.286478
 H        -0.335281        -1.080127        -1.242308
 H        -0.240868        -1.610058         0.467949
 H        -0.858236        -0.043584        -0.088007
 H         1.692254         1.172677        -2.039327
 H         1.064037         2.199254        -0.554384
 H         4.642626         1.312050        -1.882589
 H         4.987061        -0.133803        -0.778846
 H         2.979460        -1.672194        -0.062798
 H         2.391430        -0.471574         1.820653
 H         1.149071         1.038898         1.896353
