19
Iteration:  2654
 C         0.058723        -0.784513        -0.292136
 C         1.321046         0.005115        -0.167998
 C         1.649008         1.324163        -0.932689
 C         3.122942         0.836277        -0.370815
 C         4.252575         0.415173        -1.296859
 O         3.409848        -0.696377        -1.808696
 C         2.711291        -0.578755        -0.531738
 O         3.110075         1.119545         1.071672
 C         1.807525         0.449695         1.328119
 H        -0.854512        -0.447797         0.177015
 H        -0.311944        -0.912182        -1.341083
 H         0.257103        -1.825696         0.173993
 H         1.500742         1.189519        -1.944052
 H         1.159002         2.225519        -0.702790
 H         4.256885         0.966051        -2.266081
 H         5.247094         0.218687        -0.997205
 H         3.041548        -1.423602         0.101834
 H         1.997293        -0.514768         1.865194
 H         1.068927         1.172183         1.729226
