19
Iteration:  3921
 C        -0.079368        -0.736660        -0.191704
 C         1.336716        -0.109155        -0.143165
 C         1.762986         1.141721        -0.909427
 C         3.170663         0.781894        -0.341969
 C         4.248157         0.624124        -1.382068
 O         3.479929        -0.636238        -1.850731
 C         2.705621        -0.667605        -0.517038
 O         3.068576         1.044821         1.054393
 C         1.713224         0.535918         1.259993
 H        -0.817718         0.047718        -0.020343
 H        -0.152342        -0.977852        -1.287483
 H        -0.168836        -1.563277         0.506735
 H         1.772800         1.090693        -2.020259
 H         1.309762         1.941013        -0.418312
 H         4.442486         1.461869        -2.177615
 H         5.234515         0.220350        -0.962685
 H         3.283187        -1.438505         0.049203
 H         1.789732        -0.114195         2.206530
 H         0.990748         1.366497         1.400159
