19
Iteration:  1071
 C        -0.038743        -0.774402        -0.264321
 C         1.318438        -0.077968        -0.214710
 C         1.720150         1.370066        -0.862324
 C         3.138242         0.821404        -0.318608
 C         4.224709         0.553480        -1.428221
 O         3.376156        -0.623042        -1.876381
 C         2.681891        -0.649063        -0.590892
 O         3.110809         1.115351         1.124760
 C         1.905276         0.283324         1.391825
 H         0.031914        -1.781270        -0.610156
 H        -0.521324        -0.739540         0.619496
 H        -0.604180        -0.257798        -1.033509
 H         1.635961         1.337554        -1.980022
 H         1.304463         2.362187        -0.467346
 H         4.406613         1.357832        -2.186689
 H         5.106543         0.164319        -0.896068
 H         3.014041        -1.531538         0.009440
 H         1.997383        -0.657105         2.015915
 H         1.193886         0.967781         1.832342
