19
Iteration:  4248
 C        -0.040150        -0.600744        -0.179802
 C         1.376972        -0.182409        -0.169743
 C         1.806180         1.076641        -0.980897
 C         3.174571         0.753833        -0.254223
 C         4.229130         0.566077        -1.373640
 O         3.387604        -0.514824        -1.841477
 C         2.782631        -0.719231        -0.423388
 O         3.016435         1.162196         1.023726
 C         1.746338         0.376285         1.224618
 H        -0.664580         0.299662        -0.256499
 H        -0.245846        -1.063184        -1.171856
 H        -0.344950        -1.186570         0.667730
 H         1.788071         0.764266        -1.971982
 H         1.220566         2.020012        -0.763840
 H         4.207598         1.403899        -2.153865
 H         5.230097         0.375929        -1.072065
 H         3.238719        -1.599016        -0.037077
 H         1.890419        -0.338192         1.997037
 H         1.063569         1.139399         1.564316
