19
Iteration:  1803
 C        -0.082688        -0.702782        -0.194699
 C         1.361179        -0.119103        -0.110948
 C         1.887886         1.140792        -0.980166
 C         3.132921         0.726088        -0.286380
 C         4.250046         0.607828        -1.415187
 O         3.431582        -0.577516        -1.902729
 C         2.731937        -0.740596        -0.450768
 O         3.032881         1.107294         1.056296
 C         1.696729         0.520708         1.275622
 H        -0.835542         0.035925         0.167111
 H        -0.346093        -0.898412        -1.181173
 H        -0.105233        -1.572891         0.372724
 H         1.688619         0.944834        -2.058049
 H         1.513002         2.206704        -0.626024
 H         4.441570         1.440023        -2.146475
 H         5.197817         0.116943        -1.126289
 H         3.136910        -1.509866         0.194055
 H         1.877190        -0.237629         2.032014
 H         1.020035         1.221049         1.694267
