19
Iteration:  4925
 C        -0.005475        -0.728550        -0.339645
 C         1.301571        -0.022772        -0.112866
 C         1.770996         1.184214        -0.887281
 C         3.161102         0.785009        -0.359230
 C         4.202296         0.571329        -1.471428
 O         3.455261        -0.712642        -1.808854
 C         2.727578        -0.608503        -0.489443
 O         3.080087         1.104960         1.061378
 C         1.714731         0.474410         1.396696
 H        -0.861053        -0.116564        -0.171239
 H        -0.226661        -1.333742        -1.207215
 H        -0.122251        -1.511310         0.443145
 H         1.695573         0.897273        -1.952482
 H         1.476779         2.248816        -0.525415
 H         4.252779         1.169655        -2.403390
 H         5.194682         0.321328        -1.166706
 H         3.310547        -1.295838         0.149577
 H         1.852528        -0.407039         2.005493
 H         1.143866         1.308245         1.779226
