19
Iteration:  2498charge 0 multiplicity 1
 C        -0.005905        -0.747334        -0.292919
 C         1.343849        -0.119194        -0.115829
 C         1.787390         1.195684        -0.955364
 C         3.183726         0.762100        -0.342029
 C         4.176595         0.513041        -1.387859
 O         3.373065        -0.658525        -1.848762
 C         2.735544        -0.698734        -0.487003
 O         3.075340         1.226282         1.121159
 C         1.786064         0.525945         1.298488
 H        -0.754747        -0.265306         0.349287
 H        -0.350518        -0.471789        -1.357807
 H         0.078115        -1.920671        -0.363211
 H         1.689851         0.874648        -2.049222
 H         1.361031         2.190422        -0.642395
 H         4.298272         1.187468        -2.220508
 H         5.132350         0.096990        -0.917628
 H         3.328909        -1.417532         0.113908
 H         1.768406        -0.269877         2.199042
 H         0.942914         1.156420         1.754261
