19
Iteration:  4048charge 0 multiplicity 1
 C        -0.024404        -0.734956        -0.210199
 C         1.414318        -0.126655        -0.159861
 C         1.878337         1.170661        -0.967244
 C         3.173701         0.720624        -0.258483
 C         4.259029         0.551939        -1.466374
 O         3.280194        -0.537256        -1.827116
 C         2.797898        -0.683918        -0.486111
 O         3.014489         1.184348         1.101408
 C         1.675546         0.413537         1.296077
 H        -0.707350         0.172920        -0.180229
 H        -0.064808        -1.312990        -1.141161
 H        -0.169191        -1.457831         0.639220
 H         1.889994         1.012571        -2.143409
 H         1.450876         2.161207        -0.849997
 H         4.479992         1.415137        -2.057797
 H         5.181430        -0.043547        -1.377544
 H         3.132102        -1.610441        -0.068237
 H         1.748466        -0.264596         2.091128
 H         1.001246         1.262275         1.562369
