19
Iteration:  4376
 C        -0.077321        -0.715591        -0.240709
 C         1.391378        -0.101420        -0.154647
 C         1.727967         1.092771        -0.964661
 C         3.099704         0.790390        -0.350840
 C         4.176206         0.665068        -1.358392
 O         3.438357        -0.604774        -1.777512
 C         2.788385        -0.764441        -0.484865
 O         3.159058         1.050360         1.068178
 C         1.757428         0.579877         1.240798
 H        -0.814760         0.095351         0.062645
 H        -0.310868        -1.110463        -1.279187
 H        -0.425044        -1.574948         0.307874
 H         1.743272         0.932819        -1.977784
 H         1.227282         2.023578        -0.643839
 H         4.233228         1.346752        -2.154971
 H         5.215633         0.313312        -1.022791
 H         3.365861        -1.521423         0.066877
 H         1.635836        -0.162145         2.079643
 H         0.969020         1.385150         1.504305
