19
Iteration:  1421
 C        -0.004421        -0.698484        -0.304948
 C         1.338465        -0.048753        -0.101137
 C         1.753813         1.200591        -0.901341
 C         3.160407         0.774610        -0.326195
 C         4.232198         0.503738        -1.449777
 O         3.388120        -0.579326        -1.939692
 C         2.762534        -0.617090        -0.462246
 O         3.045358         1.135436         1.096321
 C         1.774651         0.352620         1.392390
 H        -0.523808        -0.686272        -1.312315
 H         0.037370        -1.776313         0.084001
 H        -0.892335        -0.255149         0.291919
 H         1.664987         0.999079        -1.955723
 H         1.332513         2.065501        -0.618905
 H         4.544451         1.327628        -2.190341
 H         5.026964         0.019932        -0.955302
 H         3.355528        -1.406256        -0.034503
 H         2.055755        -0.358545         2.152812
 H         1.006369         0.990379         1.701429
