19
Iteration:  4201charge 0 multiplicity 1
 C         0.021617        -0.846141        -0.309020
 C         1.303720         0.017747        -0.192173
 C         1.659336         1.331277        -0.845578
 C         3.115201         0.830207        -0.426090
 C         4.230343         0.497257        -1.368710
 O         3.471626        -0.724541        -1.688797
 C         2.642326        -0.597921        -0.537920
 O         3.144651         1.121990         0.996898
 C         1.803013         0.422930         1.266739
 H        -0.851128        -0.129301        -0.153712
 H        -0.215298        -1.213864        -1.343458
 H        -0.146845        -1.601489         0.472906
 H         1.509876         1.411921        -1.952548
 H         1.403556         2.184432        -0.256553
 H         4.485594         1.314538        -2.028961
 H         5.202259         0.104324        -0.828467
 H         2.857938        -1.412678         0.109806
 H         2.167017        -0.494464         1.822358
 H         1.177977         1.033331         2.009533
