19
Iteration:  3986
 C        -0.042188        -0.759876        -0.273771
 C         1.275878        -0.038057        -0.169962
 C         1.661717         1.280831        -0.854254
 C         3.111033         0.878535        -0.401215
 C         4.240348         0.485943        -1.350742
 O         3.510173        -0.721852        -1.763640
 C         2.677842        -0.602331        -0.487086
 O         3.097210         1.134258         0.966102
 C         1.853196         0.394010         1.275060
 H        -0.902666        -0.413469         0.230140
 H        -0.348701        -0.799146        -1.339648
 H         0.059312        -1.771020        -0.021004
 H         1.620752         1.355911        -1.985438
 H         1.331455         2.232505        -0.418098
 H         4.649795         1.198917        -2.174502
 H         4.927253         0.024063        -0.692052
 H         3.149094        -1.115819         0.417784
 H         1.971596        -0.604875         1.798754
 H         1.247189         1.046536         1.915083
