19
Iteration:  4707
 C         0.010403        -0.735366        -0.094527
 C         1.314379        -0.038749        -0.249182
 C         1.707709         1.294375        -1.000264
 C         3.119550         0.752196        -0.341253
 C         4.258864         0.610176        -1.286226
 O         3.476732        -0.728814        -1.781564
 C         2.684459        -0.684298        -0.514506
 O         3.083780         1.049526         1.031798
 C         1.784638         0.466894         1.169364
 H        -0.710860        -0.106125         0.404505
 H        -0.535318        -0.865280        -1.018263
 H         0.132258        -1.624276         0.593766
 H         1.746076         1.194777        -2.149335
 H         1.339482         2.228456        -0.630444
 H         4.219732         1.476730        -2.068701
 H         5.291682         0.408580        -1.041633
 H         3.131334        -1.523795         0.099569
 H         1.492753        -0.211050         1.922229
 H         1.124381         1.319192         1.511905
