19
Iteration:  4352charge 0 multiplicity 1
 C         0.032022        -0.751186        -0.327179
 C         1.337924        -0.062189        -0.007121
 C         1.764141         1.134129        -0.898046
 C         3.167124         0.808505        -0.320709
 C         4.324250         0.527384        -1.405184
 O         3.384844        -0.636050        -1.938053
 C         2.705678        -0.666858        -0.437063
 O         3.011488         1.173885         1.026027
 C         1.715823         0.519234         1.366195
 H        -0.793199        -0.243915         0.216245
 H        -0.168606        -0.861332        -1.401837
 H        -0.059770        -1.812135        -0.009959
 H         1.714454         0.764205        -1.971329
 H         1.209464         2.101709        -0.722210
 H         4.523855         1.287609        -2.101702
 H         5.240797        -0.044079        -1.174442
 H         3.303705        -1.577090        -0.075280
 H         1.922313        -0.160187         2.244340
 H         0.955086         1.257346         1.769687
