19
Iteration:    10
 C         0.012476        -0.731673        -0.228305
 C         1.342798        -0.101346        -0.057145
 C         1.739895         1.431262        -0.296746
 C         3.149145         0.745073        -0.255370
 C         4.032352         0.944104        -1.444279
 O         3.101049         0.091974        -2.182134
 C         2.581972        -0.490214        -0.874666
 O         3.339859         0.451163         1.101159
 C         2.057276        -0.329264         1.246429
 H        -0.593876        -0.363719         0.607444
 H        -0.480904        -0.246304        -1.080692
 H        -0.017183        -1.900396        -0.417802
 H         1.639802         2.023208        -1.168761
 H         1.826809         2.074638         0.536485
 H         4.098275         1.967827        -1.616390
 H         5.094511         0.578631        -1.433938
 H         3.195699        -1.487281        -0.810840
 H         2.469273        -1.429507         1.248335
 H         1.469715        -0.099633         2.173169
