19
Iteration:  4642charge 0 multiplicity 1
 C        -0.002821        -0.757620        -0.405469
 C         1.389949        -0.084016        -0.090393
 C         1.699552         1.207683        -0.875952
 C         3.115549         0.819076        -0.344731
 C         4.132302         0.445309        -1.326825
 O         3.332017        -0.612757        -1.789335
 C         2.729491        -0.728865        -0.415170
 O         3.159410         1.230271         1.006477
 C         1.837741         0.456845         1.269204
 H        -0.840314        -0.070384        -0.293604
 H         0.114608        -0.868750        -1.490953
 H        -0.063633        -1.758425         0.156418
 H         1.617360         1.148807        -2.006684
 H         1.406444         2.138213        -0.557233
 H         4.403212         1.048927        -2.261093
 H         5.034680         0.166224        -0.870224
 H         3.130149        -1.477203         0.272373
 H         2.045969        -0.435990         2.012802
 H         1.220373         1.350578         1.670676
