19
Iteration:  3949charge 0 multiplicity 1
 C        -0.050518        -0.678800        -0.204502
 C         1.354775        -0.066912        -0.188685
 C         1.818171         1.083499        -0.976312
 C         3.237106         0.701794        -0.265638
 C         4.213116         0.584078        -1.388218
 O         3.394557        -0.561403        -1.828278
 C         2.732716        -0.733790        -0.470476
 O         2.977495         1.214792         1.060155
 C         1.753026         0.410468         1.249958
 H        -0.617105         0.023329         0.461135
 H        -0.405084        -0.512975        -1.194023
 H        -0.069306        -1.717326         0.224669
 H         1.924913         0.828676        -2.083206
 H         1.247972         2.039474        -0.695290
 H         4.518207         1.315087        -2.072462
 H         5.191676         0.222081        -1.101954
 H         3.292828        -1.546544        -0.027213
 H         2.088304        -0.332878         1.904346
 H         0.924906         1.045646         1.632438
