19
Iteration:   926
 C        -0.041934        -0.656575        -0.333288
 C         1.346097        -0.079632        -0.060346
 C         1.731109         1.309928        -0.784357
 C         3.116122         0.878083        -0.352459
 C         4.156208         0.533746        -1.353225
 O         3.383916        -0.524281        -1.953614
 C         2.699699        -0.622740        -0.591505
 O         3.124871         1.052223         1.051478
 C         1.896806         0.187809         1.366014
 H        -0.846920        -0.440652         0.337774
 H        -0.299754        -0.660010        -1.318292
 H         0.180741        -1.741480        -0.188017
 H         1.580457         1.079167        -1.843678
 H         1.316150         2.267069        -0.409861
 H         4.399922         1.326346        -2.183679
 H         5.011767         0.078738        -0.896302
 H         3.164649        -1.503619        -0.021342
 H         2.163641        -0.691087         2.055926
 H         1.094699         0.659003         2.037972
