19
Iteration:   560charge 0 multiplicity 1
 C        -0.053360        -0.743873        -0.152058
 C         1.328100        -0.067848        -0.168326
 C         1.728490         1.358055        -0.698398
 C         3.166754         0.785573        -0.288987
 C         4.149174         0.733431        -1.464210
 O         3.294722        -0.238607        -2.109548
 C         2.716755        -0.561785        -0.700807
 O         3.182800         0.699664         1.178986
 C         1.919116         0.068685         1.332049
 H        -0.112865        -1.589976        -0.946419
 H        -0.132116        -1.249710         0.888837
 H        -0.918571        -0.103532        -0.091399
 H         1.684951         1.603805        -1.734057
 H         1.387976         2.173120        -0.145831
 H         4.263129         1.631936        -2.041402
 H         5.103761         0.348529        -1.075943
 H         3.093852        -1.479483        -0.185900
 H         1.975075        -0.920136         1.796196
 H         1.309655         0.762977         1.933826
