19
Iteration:   283
 C        -0.068273        -0.652242        -0.193771
 C         1.374386        -0.134327        -0.039548
 C         1.793592         1.243856        -0.528684
 C         3.243799         0.747842        -0.271939
 C         4.080067         0.854892        -1.483843
 O         3.127120        -0.024830        -2.142386
 C         2.729803        -0.571529        -0.813865
 O         3.256299         0.668820         1.182965
 C         1.893776        -0.150842         1.317482
 H        -0.075367        -1.726207        -0.287997
 H        -0.504331        -0.251560         0.739168
 H        -0.607940        -0.299278        -1.166530
 H         1.553156         1.313879        -1.595789
 H         1.598029         2.251589        -0.147682
 H         4.240546         1.783203        -2.024351
 H         5.107372         0.217718        -1.349841
 H         3.206821        -1.577260        -0.600378
 H         2.196097        -1.086902         1.777584
 H         1.336462         0.443980         2.003635
