19
Iteration:  1014charge 0 multiplicity 1
 C        -0.045378        -0.676925        -0.205619
 C         1.353335        -0.159041        -0.157339
 C         1.747974         1.138275        -0.777041
 C         3.189897         0.781078        -0.300775
 C         4.179629         0.584134        -1.420059
 O         3.420078        -0.457516        -1.900291
 C         2.693807        -0.709636        -0.651050
 O         3.111496         1.067863         1.118545
 C         1.784038         0.375842         1.265224
 H        -0.134022        -1.585770         0.356714
 H        -0.655578         0.059056         0.181450
 H        -0.384965        -0.781780        -1.250907
 H         1.599225         1.020649        -1.863094
 H         1.354923         2.098803        -0.448121
 H         4.438819         1.586349        -2.045880
 H         5.154792         0.224511        -1.147269
 H         3.027744        -1.719128        -0.241331
 H         1.902412        -0.438893         2.038289
 H         1.109883         1.186124         1.718028
