19
Iteration:  1834charge 0 multiplicity 1
 C         0.002111        -0.689303        -0.302208
 C         1.323661        -0.056951        -0.174940
 C         1.687146         1.212031        -0.913950
 C         3.178678         0.837006        -0.345405
 C         4.283918         0.495161        -1.391464
 O         3.404343        -0.668481        -1.764324
 C         2.677964        -0.663014        -0.477386
 O         3.065143         1.176898         1.036999
 C         1.804181         0.431035         1.287340
 H        -0.599781        -0.578327         0.605062
 H        -0.460159        -0.504493        -1.277766
 H         0.127970        -1.787542        -0.276601
 H         1.516505         1.016573        -1.974814
 H         1.230571         2.139348        -0.576420
 H         4.551032         1.054548        -2.164704
 H         5.242709        -0.023674        -1.081418
 H         2.956726        -1.386282         0.301035
 H         2.111678        -0.404607         1.887821
 H         1.073785         0.974985         1.842115
