19
Iteration:  3443
 C        -0.036308        -0.736813        -0.287187
 C         1.334961        -0.063341        -0.159359
 C         1.810983         1.157764        -0.940855
 C         3.109237         0.749054        -0.352519
 C         4.251460         0.453455        -1.324317
 O         3.389536        -0.593109        -1.856303
 C         2.716623        -0.735788        -0.455040
 O         3.096879         1.312907         0.980192
 C         1.765996         0.466298         1.377662
 H        -0.811638        -0.372460         0.469264
 H        -0.541784        -0.823987        -1.314084
 H        -0.045697        -1.858248        -0.079065
 H         1.700723         1.009534        -2.062778
 H         1.504484         2.127671        -0.579808
 H         4.467090         1.136112        -2.073507
 H         5.066122         0.020617        -0.733654
 H         3.247327        -1.566561         0.062591
 H         2.009025        -0.328992         2.084132
 H         0.942774         1.082423         1.771010
