19
Iteration:  4593
 C        -0.019842        -0.734685        -0.123373
 C         1.376869        -0.025396        -0.166655
 C         1.787343         1.235730        -0.996532
 C         3.208273         0.758252        -0.280174
 C         4.206901         0.594982        -1.393396
 O         3.427016        -0.703733        -1.853028
 C         2.752971        -0.634635        -0.488000
 O         3.027599         1.054650         1.062046
 C         1.701009         0.462912         1.209985
 H        -0.827997         0.027321        -0.127653
 H        -0.216885        -1.339794        -1.007841
 H         0.003242        -1.191838         0.814607
 H         1.838181         1.225541        -2.077845
 H         1.211424         2.258860        -0.654310
 H         4.253834         1.470389        -1.999264
 H         5.279130         0.148308        -1.206476
 H         3.239097        -1.408228         0.197340
 H         1.578919        -0.430160         1.776109
 H         0.962462         1.153484         1.628377
