19
Iteration:  2850
 C        -0.062971        -0.716997        -0.149560
 C         1.264797        -0.036864        -0.185889
 C         1.690966         1.234153        -0.965643
 C         3.137392         0.888883        -0.354136
 C         4.279888         0.476674        -1.363388
 O         3.553182        -0.651302        -1.798112
 C         2.696603        -0.619177        -0.567217
 O         3.050159         1.129419         1.033233
 C         1.813832         0.362156         1.300776
 H        -0.841652        -0.173565         0.344448
 H        -0.512120        -0.973926        -1.116019
 H         0.059759        -1.761402         0.241656
 H         1.693245         1.108499        -2.111512
 H         1.012549         2.118156        -0.609904
 H         4.370819         1.280559        -2.096484
 H         5.276679         0.201822        -0.960187
 H         3.130470        -1.440246         0.058332
 H         2.006131        -0.559855         1.818936
 H         1.064756         0.909007         1.918449
