19
Iteration:  4713charge 0 multiplicity 1
 C         0.007747        -0.737808        -0.063164
 C         1.284555         0.000866        -0.222365
 C         1.713878         1.280835        -1.034646
 C         3.079574         0.721646        -0.390584
 C         4.214984         0.592844        -1.327037
 O         3.529282        -0.687928        -1.775797
 C         2.705749        -0.701335        -0.519910
 O         3.099080         0.996967         1.093891
 C         1.759856         0.509363         1.151272
 H        -0.687729         0.056900         0.366393
 H        -0.376580        -0.903088        -1.108675
 H         0.133696        -1.580512         0.567440
 H         1.639556         1.250537        -2.154286
 H         1.185264         2.191917        -0.605973
 H         4.281628         1.416010        -1.964315
 H         5.278748         0.331031        -0.957048
 H         3.233429        -1.414466         0.118484
 H         1.728910        -0.234931         2.057825
 H         1.091974         1.354983         1.297134
