19
Iteration:   308charge 0 multiplicity 1
 C        -0.063913        -0.767849        -0.229095
 C         1.298839        -0.037441        -0.122910
 C         1.694615         1.377955        -0.473416
 C         3.132505         0.673953        -0.310902
 C         4.065465         0.905563        -1.445516
 O         3.253044        -0.139777        -2.148400
 C         2.634615        -0.647213        -0.863884
 O         3.339841         0.532227         1.192985
 C         2.035384         0.084173         1.384983
 H         0.116981        -1.580295        -0.966105
 H        -0.393044        -1.085431         0.757218
 H        -0.774969        -0.169389        -0.699590
 H         1.667124         1.859601        -1.416443
 H         1.467734         2.100556         0.185434
 H         4.072527         1.909961        -1.951712
 H         5.116437         0.522199        -1.240560
 H         3.053756        -1.606790        -0.601007
 H         1.954493        -0.818483         1.985744
 H         1.419605         0.933223         1.786193
