19
Iteration:  1308charge 0 multiplicity 1
 C        -0.042054        -0.659038        -0.287735
 C         1.351425        -0.084760        -0.088719
 C         1.714247         1.159555        -0.813560
 C         3.167256         0.753193        -0.323891
 C         4.288435         0.577377        -1.367597
 O         3.383257        -0.533609        -1.895707
 C         2.716203        -0.736153        -0.540511
 O         3.090971         1.184100         1.014343
 C         1.782650         0.320455         1.311775
 H        -0.076709        -1.033453        -1.331048
 H        -0.216143        -1.538161         0.467652
 H        -0.739887         0.195196        -0.108637
 H         1.566568         0.902514        -1.861000
 H         1.146581         2.092624        -0.517971
 H         4.209767         1.429831        -2.106433
 H         5.305328         0.179612        -1.043341
 H         3.051011        -1.621343         0.001925
 H         2.198871        -0.477751         1.927816
 H         0.986085         0.920550         1.824601
