19
Iteration:  2366charge 0 multiplicity 1
 C        -0.011367        -0.715907        -0.204999
 C         1.283658         0.003541        -0.183019
 C         1.761476         1.237912        -0.904967
 C         3.201739         0.778669        -0.352120
 C         4.168938         0.624836        -1.494116
 O         3.491229        -0.700394        -1.763204
 C         2.741496        -0.688234        -0.479725
 O         3.078327         1.032028         1.082891
 C         1.700439         0.465518         1.223168
 H        -0.699546        -0.035308         0.223186
 H        -0.162475        -1.228086        -1.166443
 H         0.008345        -1.463722         0.650520
 H         1.743249         1.268071        -1.973036
 H         1.282215         2.123163        -0.702499
 H         4.222740         1.295879        -2.318912
 H         5.181106         0.321705        -1.157663
 H         3.208404        -1.358420         0.278208
 H         1.690867        -0.481675         1.901827
 H         1.013721         1.192403         1.729532
