19
Iteration:  1874
 C        -0.072604        -0.861364        -0.322485
 C         1.312981        -0.021235        -0.157965
 C         1.750388         1.249840        -0.909546
 C         3.161350         0.850558        -0.383344
 C         4.302058         0.443065        -1.356652
 O         3.385977        -0.679684        -1.779937
 C         2.658234        -0.594355        -0.454543
 O         3.140889         1.152559         1.060419
 C         1.777495         0.500639         1.262221
 H        -0.603170        -0.834391         0.626745
 H        -0.772001        -0.403283        -1.114045
 H         0.197033        -1.959410        -0.528412
 H         1.700942         1.266329        -1.998609
 H         1.319730         2.159481        -0.520055
 H         4.458014         1.253187        -2.216653
 H         5.265954         0.264105        -0.864755
 H         3.012980        -1.508814         0.029604
 H         2.081395        -0.317391         1.988009
 H         0.986765         1.130761         1.809814
