19
Iteration:  1858
 C         0.006656        -0.794488        -0.322489
 C         1.272940        -0.014958        -0.098846
 C         1.759623         1.364085        -0.878243
 C         3.080272         0.853436        -0.379891
 C         4.200354         0.449531        -1.342856
 O         3.446825        -0.749188        -1.795526
 C         2.751750        -0.615541        -0.544201
 O         3.057937         1.157224         0.962119
 C         1.806144         0.411161         1.369644
 H        -0.641838        -0.940905         0.559523
 H        -0.466064        -0.443537        -1.175575
 H         0.221272        -1.776198        -0.590467
 H         1.573371         1.118207        -1.945440
 H         1.468807         2.465667        -0.561321
 H         4.631471         0.964235        -2.148738
 H         5.058217        -0.004596        -0.783012
 H         3.160857        -1.133247         0.332923
 H         1.918963        -0.384226         2.093119
 H         1.218369         1.188701         1.743774
