19
Iteration:  3991
 C        -0.034115        -0.770997        -0.295839
 C         1.276035        -0.051155        -0.181725
 C         1.653762         1.285401        -0.853647
 C         3.060674         0.892050        -0.417914
 C         4.252023         0.478103        -1.316178
 O         3.491293        -0.738971        -1.763260
 C         2.682010        -0.558779        -0.484235
 O         3.135870         1.117482         0.979640
 C         1.857843         0.419473         1.239224
 H        -0.946990        -0.354089         0.256867
 H        -0.281610        -0.764535        -1.370194
 H         0.164759        -1.851479         0.142631
 H         1.573693         1.291349        -1.915940
 H         1.311002         2.092808        -0.169814
 H         4.506552         1.160319        -2.080021
 H         5.161907         0.124436        -0.656101
 H         2.997390        -1.263973         0.279673
 H         1.992823        -0.539743         1.781990
 H         1.264211         1.140666         1.817078
