19
Iteration:  1808
 C        -0.125562        -0.712108        -0.207467
 C         1.327374        -0.142586        -0.122194
 C         1.905972         1.157980        -1.009059
 C         3.192576         0.773917        -0.319751
 C         4.185129         0.570891        -1.363576
 O         3.413664        -0.578958        -1.900811
 C         2.752142        -0.736444        -0.438808
 O         3.058879         1.139951         1.070635
 C         1.724927         0.507113         1.273148
 H        -0.844041        -0.110656         0.383269
 H        -0.310049        -0.845359        -1.341412
 H        -0.283848        -1.752032         0.301621
 H         1.813378         1.048338        -2.078423
 H         1.617540         2.123157        -0.663085
 H         4.422944         1.376038        -2.186987
 H         5.202610         0.254155        -1.097386
 H         3.203555        -1.525479         0.210693
 H         1.915147        -0.294991         2.064914
 H         0.906913         1.146846         1.770963
