19
Iteration:  3677charge 0 multiplicity 1
 C        -0.018527        -0.738955        -0.243266
 C         1.356156        -0.074676        -0.180631
 C         1.755418         1.273888        -0.967598
 C         3.115431         0.823006        -0.302394
 C         4.220138         0.510261        -1.434185
 O         3.439590        -0.641019        -1.689387
 C         2.699948        -0.655304        -0.492002
 O         3.082457         1.142293         1.027423
 C         1.769421         0.381949         1.234299
 H        -0.787160         0.169317        -0.224757
 H        -0.051342        -1.361462        -1.133695
 H        -0.151070        -1.516329         0.552599
 H         1.633205         1.246827        -1.981879
 H         1.314809         2.190565        -0.598905
 H         4.194877         1.336893        -2.251782
 H         5.215147         0.275956        -1.128031
 H         3.169362        -1.420332         0.219688
 H         2.060627        -0.580713         1.658282
 H         1.029373         0.818883         1.942761
