19
Iteration:  3539
 C        -0.032141        -0.695613        -0.361776
 C         1.376811        -0.148004        -0.050840
 C         1.709036         1.090975        -0.936023
 C         3.176211         0.801117        -0.352143
 C         4.266554         0.471592        -1.317066
 O         3.258368        -0.587219        -1.835494
 C         2.795717        -0.654370        -0.502931
 O         3.041514         1.243217         1.058720
 C         1.865532         0.457062         1.313319
 H        -0.703994         0.114823        -0.509983
 H         0.037253        -1.174415        -1.370169
 H        -0.543186        -1.415929         0.248075
 H         1.624601         0.751072        -2.009805
 H         1.378351         2.156803        -0.724019
 H         4.436398         1.175488        -2.103278
 H         5.155330        -0.102979        -0.859644
 H         3.336185        -1.338871         0.124734
 H         2.131645        -0.276242         2.144604
 H         1.206712         1.166222         1.811358
