19
Iteration:  3614
 C        -0.043942        -0.716495        -0.121519
 C         1.360718        -0.069728        -0.219196
 C         1.759963         1.203406        -1.009632
 C         3.198621         0.756019        -0.337169
 C         4.280431         0.549801        -1.325834
 O         3.393407        -0.618477        -1.798902
 C         2.742643        -0.684567        -0.535829
 O         3.025365         1.116945         1.083853
 C         1.747193         0.458884         1.185547
 H        -0.780783        -0.378401         0.617287
 H        -0.577693        -0.748737        -1.062707
 H         0.160471        -1.734610         0.180042
 H         1.887497         1.079931        -2.085238
 H         1.323123         2.149112        -0.645377
 H         4.327139         1.380604        -2.080022
 H         5.208261         0.111714        -0.990129
 H         3.177898        -1.299839         0.249383
 H         1.827585        -0.227153         2.042505
 H         0.954314         1.143783         1.407309
