19
Iteration:   746charge 0 multiplicity 1
 C        -0.061972        -0.761942        -0.205484
 C         1.218505        -0.006069        -0.122356
 C         1.725316         1.322783        -0.720834
 C         3.160409         0.784010        -0.298501
 C         4.237710         0.754886        -1.431625
 O         3.395321        -0.491307        -2.010069
 C         2.689016        -0.612588        -0.713627
 O         3.200172         0.804086         1.125107
 C         1.839814         0.230969         1.335236
 H        -0.022496        -1.659009         0.431143
 H        -0.909530        -0.094234         0.134776
 H        -0.210119        -0.964269        -1.172566
 H         1.552665         1.495069        -1.781352
 H         1.331641         2.177355        -0.182909
 H         4.122333         1.544814        -2.133989
 H         5.318571         0.594746        -1.177972
 H         3.073026        -1.468358        -0.118915
 H         2.025409        -0.747260         1.906583
 H         1.243243         0.986353         1.965377
