19
Iteration:  1135charge 0 multiplicity 1
 C        -0.020123        -0.753793        -0.201307
 C         1.325083        -0.044791        -0.150603
 C         1.784532         1.258213        -0.826334
 C         3.118240         0.792246        -0.346782
 C         4.167771         0.606965        -1.381204
 O         3.386646        -0.543045        -1.916575
 C         2.729325        -0.673802        -0.499216
 O         3.141337         1.005685         1.032870
 C         1.768838         0.378866         1.282250
 H         0.171952        -1.636327        -0.822698
 H        -0.566421        -1.050410         0.728859
 H        -0.792430        -0.103575        -0.706176
 H         1.826526         1.136432        -1.908079
 H         1.424481         2.212048        -0.521404
 H         4.559474         1.443238        -2.105593
 H         5.006522         0.159569        -0.905317
 H         3.258559        -1.561647        -0.048100
 H         1.879233        -0.444601         2.024361
 H         1.055491         1.096998         1.709285
