19
Iteration:   358charge 0 multiplicity 1
 C         0.039769        -0.648429        -0.292847
 C         1.405719        -0.043228        -0.067374
 C         1.776199         1.311352        -0.530890
 C         3.187239         0.803351        -0.236024
 C         4.087111         0.682974        -1.503492
 O         3.102736        -0.140690        -2.138712
 C         2.699350        -0.574354        -0.782542
 O         3.146018         0.792898         1.226978
 C         2.021290        -0.143554         1.352479
 H        -0.406247        -0.357812        -1.229139
 H         0.261189        -1.730341        -0.219704
 H        -0.639465        -0.314109         0.609700
 H         1.535344         1.515030        -1.625489
 H         1.317258         2.208428         0.128854
 H         4.241792         1.589601        -2.017255
 H         4.999795         0.139425        -1.293479
 H         3.139330        -1.604820        -0.659185
 H         2.465321        -1.180618         1.364236
 H         1.254039         0.072606         2.086670
