19
Iteration:  3593
 C         0.022203        -0.813057        -0.176338
 C         1.282203         0.043317        -0.203298
 C         1.870842         1.314763        -0.927464
 C         3.180787         0.818472        -0.406168
 C         4.179724         0.496100        -1.498335
 O         3.547480        -0.705752        -1.809558
 C         2.632238        -0.620743        -0.436428
 O         3.028124         1.086527         1.073811
 C         1.636028         0.442656         1.331298
 H        -0.791464        -0.523037         0.378991
 H        -0.419347        -0.950376        -1.153252
 H         0.369359        -1.718493         0.237572
 H         1.910164         1.079937        -2.043459
 H         1.627074         2.352213        -0.587545
 H         4.290196         1.192917        -2.346963
 H         5.238259         0.383472        -1.040335
 H         2.811096        -1.511826         0.119454
 H         1.746098        -0.410920         2.067192
 H         1.115876         1.255932         1.771073
