19
Iteration:  2080
 C         0.033075        -0.667023        -0.179217
 C         1.341089        -0.059786        -0.176866
 C         1.635276         1.223752        -0.986006
 C         3.138665         0.798249        -0.359725
 C         4.261345         0.480548        -1.337410
 O         3.494028        -0.630503        -1.763228
 C         2.730228        -0.641243        -0.512837
 O         2.992683         1.192367         0.993748
 C         1.845463         0.327296         1.278711
 H        -0.787600        -0.059862         0.258694
 H        -0.449079        -0.624360        -1.174951
 H        -0.113115        -1.716788         0.193968
 H         1.518856         1.237503        -2.099249
 H         1.243289         2.226291        -0.441890
 H         4.406235         1.183642        -2.199972
 H         5.073210        -0.029074        -0.809441
 H         3.016237        -1.632738         0.034004
 H         2.179967        -0.531758         1.820288
 H         1.062159         0.840617         1.839799
