19
Iteration:     5
 C        -0.004430        -0.719613        -0.227631
 C         1.359250        -0.114489        -0.074315
 C         1.739519         1.377210        -0.305231
 C         3.169515         0.742573        -0.231754
 C         4.034420         0.940508        -1.454964
 O         3.079354         0.126422        -2.180912
 C         2.607045        -0.488190        -0.908129
 O         3.342910         0.428549         1.124304
 C         2.067507        -0.319584         1.278778
 H        -0.665065        -0.213786         0.512920
 H        -0.490475        -0.410977        -1.179364
 H        -0.021676        -1.794538        -0.255152
 H         1.591510         1.918775        -1.277079
 H         1.654716         2.129757         0.542093
 H         4.174197         2.053040        -1.734159
 H         5.069469         0.566861        -1.442367
 H         3.137229        -1.424112        -0.875969
 H         2.395808        -1.342402         1.391690
 H         1.474189         0.037157         2.124477
