19
Iteration:  1592charge 0 multiplicity 1
 C        -0.081285        -0.740876        -0.315102
 C         1.293368        -0.053156        -0.078403
 C         1.760631         1.236193        -0.857784
 C         3.188405         0.736168        -0.328137
 C         4.285000         0.572094        -1.400898
 O         3.347651        -0.541974        -1.845268
 C         2.766441        -0.708951        -0.547771
 O         3.096104         1.094261         1.030703
 C         1.810636         0.406834         1.316288
 H        -0.040567        -1.689109        -0.765080
 H        -0.614930        -1.013975         0.614970
 H        -0.845363        -0.167597        -0.726831
 H         1.672623         1.051438        -1.957375
 H         1.334479         2.222277        -0.430038
 H         4.120856         1.357846        -2.040310
 H         5.362889         0.357867        -1.259791
 H         3.182364        -1.557800         0.054790
 H         2.071069        -0.445998         2.011477
 H         1.135124         1.091249         1.901735
