19
Iteration:  4311charge 0 multiplicity 1
 C         0.076163        -0.869207        -0.247794
 C         1.322243         0.050969        -0.248600
 C         1.739757         1.330005        -0.937073
 C         3.148886         0.870314        -0.396253
 C         4.228460         0.463800        -1.320049
 O         3.336856        -0.709104        -1.748654
 C         2.727036        -0.586497        -0.503824
 O         3.072336         1.137453         1.046707
 C         1.801844         0.395362         1.271613
 H        -0.760003        -0.347390         0.323252
 H        -0.312962        -0.998881        -1.316251
 H         0.280587        -1.830908         0.183866
 H         1.730434         1.248729        -1.968852
 H         1.253547         2.285340        -0.810650
 H         4.396101         1.134743        -2.159631
 H         5.199553         0.218952        -0.680835
 H         2.898106        -1.355672         0.209577
 H         1.870586        -0.603355         1.851851
 H         1.118668         0.961996         2.011387
