19
Iteration:  1641charge 0 multiplicity 1
 C        -0.059969        -0.728791        -0.162599
 C         1.310853        -0.051671        -0.225009
 C         1.716187         1.196428        -0.897730
 C         3.182873         0.780545        -0.327783
 C         4.284121         0.500581        -1.350044
 O         3.401115        -0.549122        -1.838982
 C         2.719503        -0.556127        -0.532222
 O         3.085099         1.132344         1.003036
 C         1.814053         0.317610         1.251133
 H        -0.329165        -1.473098        -0.980912
 H        -0.282149        -1.394635         0.666705
 H        -1.012537        -0.052850        -0.091888
 H         1.614502         1.198532        -1.961225
 H         1.419563         2.067871        -0.359197
 H         4.814338         1.283686        -2.072357
 H         5.079812        -0.062554        -0.910934
 H         3.120571        -1.304924         0.135813
 H         1.861936        -0.607678         1.925457
 H         1.079951         0.938441         1.778116
