19
Iteration:  4779charge 0 multiplicity 1
 C         0.067450        -0.727093        -0.363872
 C         1.425447        -0.088727        -0.120880
 C         1.766098         1.237075        -0.910538
 C         3.185679         0.832880        -0.318007
 C         4.225212         0.504496        -1.342367
 O         3.253159        -0.706008        -1.781659
 C         2.678983        -0.688289        -0.490925
 O         2.989174         1.283726         1.005013
 C         1.901409         0.378749         1.309426
 H        -0.789027         0.049552        -0.359348
 H        -0.089790        -1.133603        -1.396852
 H        -0.213259        -1.420399         0.407855
 H         1.759991         0.963875        -2.015231
 H         1.269132         2.186449        -0.644490
 H         4.477243         1.162013        -2.099322
 H         5.192049         0.041056        -0.992098
 H         2.883963        -1.414308         0.287509
 H         2.341890        -0.415861         2.057123
 H         1.037664         0.774399         1.858632
