19
Iteration:  1484charge 0 multiplicity 1
 C        -0.041216        -0.730441        -0.205958
 C         1.298322        -0.024234        -0.067838
 C         1.758047         1.252793        -0.877254
 C         3.173158         0.830387        -0.362790
 C         4.242716         0.543155        -1.377849
 O         3.432749        -0.614316        -1.861074
 C         2.784842        -0.614454        -0.557198
 O         3.023178         1.025579         0.981580
 C         1.761370         0.375702         1.328009
 H        -0.391515        -0.541370        -1.184439
 H         0.148205        -1.808242        -0.036943
 H        -0.743991        -0.357611         0.479048
 H         1.583306         1.012887        -1.958010
 H         1.275441         2.290919        -0.802199
 H         4.590177         1.328741        -2.155662
 H         5.092404         0.136850        -0.869310
 H         3.215331        -1.414194         0.027593
 H         1.960639        -0.455486         2.073367
 H         1.002960         1.052503         1.777210
