19
Iteration:  1621charge 0 multiplicity 1
 C        -0.014474        -0.724142        -0.225672
 C         1.397497        -0.106163        -0.097238
 C         1.758449         1.266066        -0.957075
 C         3.111538         0.901093        -0.387007
 C         4.256755         0.439201        -1.311172
 O         3.344887        -0.525027        -1.938671
 C         2.710970        -0.737049        -0.543982
 O         3.028686         1.157587         1.121463
 C         1.870134         0.344892         1.282415
 H        -0.266655        -1.579223        -0.944873
 H        -0.412728        -1.066337         0.798201
 H        -0.769689         0.175126        -0.548156
 H         1.732990         1.064400        -1.986734
 H         1.177756         2.073367        -0.676361
 H         4.591591         1.277545        -2.020685
 H         5.239343         0.123720        -0.719713
 H         3.070186        -1.679348        -0.033356
 H         2.166526        -0.498803         1.918594
 H         1.156869         0.809006         1.991313
