19
Iteration:  3827charge 0 multiplicity 1
 C        -0.079396        -0.707777        -0.245098
 C         1.340103        -0.104888        -0.080827
 C         1.765385         1.127536        -1.020614
 C         3.129668         0.787840        -0.318874
 C         4.173315         0.570186        -1.382898
 O         3.441453        -0.569732        -1.800688
 C         2.816790        -0.705239        -0.498004
 O         3.116734         1.047785         1.018185
 C         1.728601         0.532742         1.321157
 H        -0.889302        -0.114946         0.141200
 H        -0.135939        -0.789438        -1.318826
 H        -0.001167        -1.700621         0.252990
 H         1.706922         0.831322        -2.043320
 H         1.158410         2.115719        -0.703772
 H         4.310962         1.311555        -2.190990
 H         5.193357         0.279582        -0.958968
 H         3.190477        -1.487944         0.128341
 H         1.759973        -0.089549         2.210609
 H         1.040707         1.408095         1.536427
