19
Iteration:  1258
 C         0.093065        -0.817492        -0.224710
 C         1.313011         0.059746        -0.191961
 C         1.702939         1.250891        -0.913625
 C         3.150511         0.803654        -0.320678
 C         4.203487         0.481377        -1.367612
 O         3.380322        -0.584071        -1.827234
 C         2.685120        -0.591524        -0.541105
 O         3.131907         1.059959         1.070681
 C         1.733611         0.382536         1.262214
 H        -0.427625        -0.470086        -1.113358
 H         0.451964        -1.768376        -0.295895
 H        -0.603683        -0.637809         0.588911
 H         1.598249         1.313254        -2.009028
 H         1.482156         2.208051        -0.386442
 H         4.411673         1.215903        -2.141324
 H         5.035570         0.039814        -0.877242
 H         2.922065        -1.482131         0.105227
 H         1.867095        -0.582988         1.828283
 H         1.239738         1.142830         1.804420
