19
Iteration:  4499charge 0 multiplicity 1
 C         0.034975        -0.784853        -0.280662
 C         1.318951        -0.014178        -0.224156
 C         1.854475         1.273020        -0.931430
 C         3.187922         0.824764        -0.297458
 C         4.183225         0.608941        -1.540652
 O         3.371364        -0.751227        -1.748875
 C         2.788838        -0.717864        -0.439838
 O         3.080416         1.124973         1.143537
 C         1.664041         0.471592         1.259591
 H        -0.790844        -0.468622         0.374912
 H        -0.533609        -0.856054        -1.222842
 H         0.325495        -1.769012         0.136423
 H         1.628565         1.279463        -2.010384
 H         1.422565         2.105269        -0.590060
 H         4.114399         1.358756        -2.352353
 H         5.172796         0.280486        -1.362900
 H         3.024807        -1.491858         0.249188
 H         1.655771        -0.300493         2.117128
 H         1.121222         1.362774         1.636501
