19
Iteration:   530charge 0 multiplicity 1
 C        -0.022700        -0.766835        -0.216204
 C         1.303401         0.006628        -0.102586
 C         1.764760         1.406788        -0.612167
 C         3.193965         0.676828        -0.289049
 C         4.061694         0.871852        -1.530248
 O         3.376993        -0.362477        -2.040666
 C         2.636604        -0.610750        -0.700898
 O         3.263918         0.720930         1.144582
 C         1.826866         0.057472         1.310646
 H         0.188662        -1.798741        -0.518246
 H        -0.391970        -0.802085         0.811594
 H        -0.761795        -0.245473        -0.905590
 H         1.712317         1.749616        -1.628184
 H         1.592666         2.229645         0.087456
 H         3.776664         1.888187        -2.087040
 H         5.181727         0.829829        -1.445950
 H         2.795567        -1.634704        -0.378300
 H         1.898802        -0.893835         1.811972
 H         1.337958         0.652696         2.100195
