19
Iteration:  1977charge 0 multiplicity 1
 C         0.017810        -0.749592        -0.261146
 C         1.303122         0.028593        -0.150991
 C         1.704611         1.248045        -0.914494
 C         3.173533         0.869976        -0.336857
 C         4.266263         0.462138        -1.390011
 O         3.420500        -0.666629        -1.810883
 C         2.699709        -0.616806        -0.527250
 O         3.005501         1.146822         1.011302
 C         1.795480         0.335449         1.345001
 H        -0.920878        -0.015553        -0.188447
 H         0.023343        -1.273855        -1.237389
 H        -0.128113        -1.505231         0.515169
 H         1.582889         1.102695        -1.963900
 H         1.432101         2.216470        -0.553814
 H         4.426416         1.105178        -2.207417
 H         5.356857         0.114269        -0.879838
 H         3.170834        -1.422141         0.066999
 H         2.100142        -0.592674         1.879164
 H         1.363534         1.078295         2.020469
