19
Iteration:   535charge 0 multiplicity 1
 C        -0.001396        -0.785069        -0.154110
 C         1.310851        -0.001163        -0.120997
 C         1.790204         1.397757        -0.599456
 C         3.194709         0.689636        -0.260637
 C         4.091851         0.911669        -1.543650
 O         3.371900        -0.377560        -2.021609
 C         2.624641        -0.587702        -0.768008
 O         3.268974         0.707933         1.139954
 C         1.776949         0.072566         1.305761
 H         0.205844        -1.736347        -0.691477
 H        -0.542196        -0.920299         0.809077
 H        -0.693355        -0.197230        -0.719885
 H         1.667011         1.639090        -1.724807
 H         1.595960         2.422612        -0.035132
 H         3.842302         1.763915        -2.061010
 H         5.160023         0.777853        -1.493922
 H         2.682531        -1.609986        -0.300997
 H         1.920120        -1.022423         1.780749
 H         1.216279         0.639802         2.063295
