19
Iteration:  1445charge 0 multiplicity 1
 C         0.018987        -0.733502        -0.259264
 C         1.338713        -0.065421        -0.184803
 C         1.756401         1.227963        -0.867277
 C         3.157803         0.754969        -0.262263
 C         4.168430         0.635112        -1.434877
 O         3.425147        -0.610067        -1.756588
 C         2.736435        -0.676745        -0.511083
 O         3.088956         1.025251         1.014460
 C         1.781356         0.430696         1.251444
 H        -0.670629        -0.403414        -1.123010
 H        -0.057240        -1.813761        -0.153465
 H        -0.681218        -0.327184         0.591312
 H         1.932443         1.231204        -1.934265
 H         1.388816         2.133751        -0.425946
 H         3.972390         1.306917        -2.231774
 H         5.239647         0.430949        -1.227729
 H         2.858425        -1.728283        -0.131053
 H         1.871988        -0.254758         2.074589
 H         1.182674         1.320339         1.486125
