19
Iteration:  3669
 C        -0.031524        -0.736291        -0.271901
 C         1.341072        -0.039908        -0.128894
 C         1.721095         1.179948        -0.910332
 C         3.172056         0.817437        -0.388267
 C         4.244198         0.539670        -1.388033
 O         3.473157        -0.628626        -1.779527
 C         2.670415        -0.658653        -0.446776
 O         3.039685         1.167192         1.007657
 C         1.794183         0.375472         1.279058
 H        -0.817765         0.091670        -0.099964
 H        -0.231768        -1.255121        -1.249610
 H        -0.247911        -1.459283         0.531628
 H         1.651225         1.165132        -2.049684
 H         1.384737         2.150917        -0.560263
 H         4.459842         1.189826        -2.237647
 H         5.198386         0.339024        -0.918745
 H         2.894615        -1.586783         0.091037
 H         2.184694        -0.488844         1.840123
 H         1.136884         0.927480         1.895366
