19
Iteration:  4375
 C        -0.073746        -0.713053        -0.243432
 C         1.397351        -0.101585        -0.149161
 C         1.726083         1.086301        -0.966266
 C         3.102397         0.783376        -0.357615
 C         4.170359         0.652064        -1.359935
 O         3.439097        -0.595135        -1.783120
 C         2.785987        -0.755547        -0.490432
 O         3.154026         1.052456         1.072392
 C         1.759820         0.582780         1.254590
 H        -0.809047         0.085480         0.071824
 H        -0.284413        -1.099277        -1.280464
 H        -0.432906        -1.599064         0.274723
 H         1.743882         0.901117        -2.022546
 H         1.250552         2.052120        -0.629121
 H         4.229411         1.318095        -2.147522
 H         5.198686         0.323689        -1.003033
 H         3.374157        -1.530223         0.103281
 H         1.622153        -0.147019         2.099486
 H         0.961442         1.383580         1.485569
