19
Iteration:  2032charge 0 multiplicity 1
 C         0.045443        -0.762556        -0.258296
 C         1.341730        -0.049651        -0.093129
 C         1.740315         1.188615        -0.947630
 C         3.184867         0.788649        -0.321532
 C         4.320368         0.590999        -1.451516
 O         3.359576        -0.581588        -1.873820
 C         2.657274        -0.752439        -0.462778
 O         3.083045         1.059572         1.134321
 C         1.748184         0.543709         1.282953
 H        -0.879228        -0.182716        -0.633604
 H         0.027492        -1.448754        -1.094914
 H        -0.231695        -1.368715         0.587289
 H         1.599769         0.857378        -1.951209
 H         1.393448         2.095109        -0.754736
 H         4.089805         1.330073        -2.096606
 H         5.351404         0.281027        -1.117076
 H         3.099345        -1.544333         0.138104
 H         1.694766        -0.204023         2.115809
 H         1.072879         1.390633         1.497017
