19
Iteration:   476
 C         0.001282        -0.674004        -0.344102
 C         1.390013        -0.113956        -0.049720
 C         1.701834         1.261517        -0.608718
 C         3.150713         0.726342        -0.315152
 C         4.136987         0.626637        -1.438136
 O         3.115659        -0.071130        -2.097942
 C         2.698911        -0.611282        -0.706511
 O         3.164497         0.839005         1.146732
 C         2.059356         0.015674         1.419380
 H        -0.338261        -1.317634         0.462260
 H        -0.780203         0.044162        -0.537964
 H         0.160430        -1.399217        -1.208713
 H         1.608070         1.300587        -1.715736
 H         1.375811         2.170594         0.001804
 H         4.499812         1.620297        -1.979822
 H         4.969507        -0.032665        -1.111799
 H         3.191176        -1.517400        -0.351381
 H         2.533339        -0.977834         1.800423
 H         1.374669         0.483481         2.201495
