19
Iteration:  3307
 C        -0.091260        -0.708132        -0.227910
 C         1.361781        -0.102212        -0.156030
 C         1.722488         1.224749        -0.895739
 C         3.128141         0.794772        -0.309165
 C         4.286209         0.505527        -1.353835
 O         3.392337        -0.664011        -1.799597
 C         2.768642        -0.721429        -0.518833
 O         3.009753         1.254215         1.005904
 C         1.854348         0.407793         1.221905
 H        -0.723059         0.192371        -0.093072
 H        -0.277697        -1.047735        -1.244199
 H        -0.212210        -1.383316         0.635471
 H         1.823426         0.829422        -1.944329
 H         1.279286         2.206920        -0.675349
 H         4.554802         1.089785        -2.203677
 H         5.112101         0.096591        -0.816012
 H         3.252658        -1.463973         0.108380
 H         2.048634        -0.403557         1.952931
 H         1.096751         1.050727         1.683364
