19
Iteration:   659charge 0 multiplicity 1
 C         0.001808        -0.772399        -0.226106
 C         1.305153         0.019916        -0.151354
 C         1.665028         1.393353        -0.618982
 C         3.192633         0.707966        -0.264811
 C         4.146688         0.786101        -1.492875
 O         3.350085        -0.454425        -2.029295
 C         2.736253        -0.606532        -0.707548
 O         3.195359         0.737253         1.147304
 C         1.843119         0.202530         1.343825
 H        -0.824152        -0.037249         0.036263
 H        -0.250365        -0.988393        -1.323363
 H        -0.061367        -1.622795         0.386840
 H         1.431223         1.591618        -1.644633
 H         1.403724         2.176282         0.028482
 H         4.003540         1.633082        -2.128268
 H         5.136961         0.507286        -1.461739
 H         3.198012        -1.541361        -0.306111
 H         1.996731        -0.680807         1.953221
 H         1.309148         1.077910         1.813546
