19
Iteration:  1697
 C        -0.079343        -0.764177        -0.269596
 C         1.376624        -0.093159        -0.084440
 C         1.753873         1.201561        -0.912313
 C         3.173596         0.716026        -0.302382
 C         4.240205         0.563323        -1.447467
 O         3.341203        -0.533006        -1.813578
 C         2.793999        -0.674770        -0.408909
 O         3.118039         1.076563         1.042865
 C         1.731969         0.453927         1.214700
 H        -0.438477        -0.139928        -1.120905
 H        -0.016603        -1.825039        -0.477705
 H        -0.981199        -0.544198         0.444309
 H         1.864648         1.125340        -1.955011
 H         1.512774         2.176969        -0.586552
 H         4.321747         1.286271        -2.371429
 H         5.190550         0.301815        -1.087107
 H         3.095617        -1.459931         0.301931
 H         1.881055        -0.333049         2.003126
 H         1.087197         1.299598         1.540107
