19
Iteration:  4137charge 0 multiplicity 1
 C         0.001158        -0.715555        -0.204491
 C         1.357210        -0.146605        -0.200097
 C         1.859373         1.219977        -0.893162
 C         3.210406         0.731598        -0.328856
 C         4.200341         0.498218        -1.397427
 O         3.371569        -0.574879        -1.856083
 C         2.799273        -0.714030        -0.458577
 O         2.960290         1.175957         1.064342
 C         1.730080         0.484839         1.250770
 H        -0.596415        -0.083889         0.523471
 H        -0.500981        -0.652866        -1.218674
 H        -0.092648        -1.731258         0.147002
 H         1.647586         1.082096        -2.005389
 H         1.488601         2.165888        -0.465683
 H         4.422541         1.374995        -2.025593
 H         5.177051         0.069371        -1.135366
 H         3.254077        -1.556417         0.028855
 H         1.811641        -0.362754         1.890918
 H         0.938806         1.197373         1.540418
