19
Iteration:  2001
 C        -0.031421        -0.807948        -0.284568
 C         1.402508        -0.122775        -0.141804
 C         1.813219         1.243663        -0.894422
 C         3.192288         0.816212        -0.357342
 C         4.210847         0.460246        -1.369388
 O         3.297654        -0.539169        -1.882169
 C         2.759013        -0.747659        -0.464597
 O         3.077740         1.193632         1.132820
 C         1.738138         0.469331         1.266573
 H        -0.827616         0.037179        -0.539130
 H         0.002995        -1.522557        -1.102445
 H        -0.375428        -1.324880         0.608359
 H         1.711946         1.103167        -1.994061
 H         1.438252         2.262047        -0.508029
 H         4.257059         1.153119        -2.227257
 H         5.309089         0.059070        -1.095991
 H         3.355705        -1.566583         0.041187
 H         1.841881        -0.229839         2.087595
 H         1.018183         1.248916         1.500165
