19
Iteration:  3880
 C         0.044124        -0.847097        -0.295616
 C         1.299861        -0.039569        -0.179592
 C         1.802390         1.314390        -0.906042
 C         3.124929         0.812775        -0.364664
 C         4.219571         0.511620        -1.328822
 O         3.321642        -0.667481        -1.772020
 C         2.675117        -0.579129        -0.463121
 O         3.068785         1.168698         1.035599
 C         1.862806         0.376092         1.228985
 H        -0.810398        -0.123310        -0.377167
 H        -0.002777        -1.587454        -1.166255
 H        -0.134563        -1.458294         0.696686
 H         1.761233         1.206714        -1.970714
 H         1.379876         2.343483        -0.629935
 H         4.560625         1.065190        -2.116852
 H         5.171638         0.290074        -0.839098
 H         2.917418        -1.321695         0.272285
 H         2.139164        -0.568094         1.687675
 H         1.176057         0.969385         1.763146
