19
Iteration:   270
 C        -0.082883        -0.617595        -0.176911
 C         1.347662        -0.133650        -0.145361
 C         1.783120         1.319517        -0.547473
 C         3.149186         0.757286        -0.235359
 C         4.138206         0.820214        -1.485555
 O         3.070013        -0.050996        -2.120319
 C         2.785810        -0.597592        -0.794123
 O         3.220351         0.702460         1.181222
 C         2.056516        -0.191590         1.319731
 H        -0.213333        -1.616957         0.237776
 H        -0.909420        -0.049079         0.330102
 H        -0.425918        -0.519674        -1.312650
 H         1.623283         1.533037        -1.630618
 H         1.371957         2.032942         0.318011
 H         4.352903         1.751832        -2.030447
 H         5.128468         0.218378        -1.277035
 H         3.410358        -1.514985        -0.561312
 H         2.287104        -1.260844         1.499485
 H         1.347905         0.150146         2.058219
