19
Iteration:  3163charge 0 multiplicity 1
 C        -0.090152        -0.709744        -0.177197
 C         1.326869        -0.125798        -0.126217
 C         1.709762         1.279935        -0.987920
 C         3.176214         0.829563        -0.371192
 C         4.194857         0.561731        -1.420327
 O         3.620174        -0.691997        -1.858618
 C         2.703871        -0.655463        -0.451684
 O         3.056950         1.057053         1.068309
 C         1.754048         0.450686         1.264210
 H        -0.738373         0.236434        -0.181589
 H        -0.341803        -1.449821        -0.952047
 H        -0.267407        -1.030502         0.865082
 H         1.459471         0.964813        -2.046280
 H         1.318807         2.178172        -0.471488
 H         4.180114         1.211768        -2.335759
 H         5.165546         0.397454        -0.985931
 H         3.093134        -1.418152         0.245026
 H         1.759708        -0.311933         2.033269
 H         0.996958         1.224017         1.545559
