19
Iteration:  3599charge 0 multiplicity 1
 C         0.024977        -0.828810        -0.155045
 C         1.282086         0.022849        -0.210085
 C         1.871665         1.297592        -0.980564
 C         3.142828         0.812997        -0.321736
 C         4.191853         0.506127        -1.427858
 O         3.492584        -0.698519        -1.820006
 C         2.736553        -0.627555        -0.469433
 O         3.034221         1.081124         1.066128
 C         1.628386         0.478509         1.281806
 H        -0.661812        -0.148032         0.634699
 H        -0.541433        -0.809650        -1.124215
 H         0.191724        -1.905750         0.269880
 H         1.811227         1.144721        -2.039744
 H         1.570477         2.289186        -0.680141
 H         4.360486         1.198117        -2.303281
 H         5.229270         0.396722        -1.103643
 H         2.991738        -1.651430        -0.014533
 H         1.753737        -0.468806         1.795983
 H         1.080876         1.311610         1.852566
