19
Iteration:  4159
 C         0.010523        -0.749101        -0.219157
 C         1.345378        -0.102589        -0.110404
 C         1.847165         1.118140        -0.971880
 C         3.230975         0.789412        -0.266235
 C         4.337874         0.491951        -1.438543
 O         3.299750        -0.538046        -1.895329
 C         2.738080        -0.654141        -0.524348
 O         3.039140         1.139595         1.128687
 C         1.631663         0.530813         1.349702
 H        -0.918691        -0.436763         0.332222
 H        -0.204940        -0.755019        -1.349111
 H         0.087812        -1.799254        -0.008579
 H         1.703533         0.799134        -2.032968
 H         1.335715         2.070799        -0.703511
 H         4.494058         1.087327        -2.369362
 H         5.324435         0.090521        -1.188849
 H         3.169369        -1.526471        -0.072808
 H         1.649842        -0.233434         2.102312
 H         0.990377         1.411253         1.564759
