19
Iteration:  3759
 C        -0.027882        -0.739395        -0.226377
 C         1.355135        -0.080226        -0.138607
 C         1.690727         1.191570        -1.010655
 C         3.171199         0.843472        -0.327948
 C         4.260899         0.444182        -1.315146
 O         3.388826        -0.591445        -1.814803
 C         2.731996        -0.657260        -0.518159
 O         3.032026         1.232660         1.008365
 C         1.841191         0.375723         1.336649
 H        -0.909421        -0.245801         0.242658
 H        -0.315562        -0.840401        -1.344533
 H        -0.009411        -1.732067         0.312695
 H         1.685266         0.924165        -2.171965
 H         1.186433         2.224443        -0.787472
 H         4.596315         1.101447        -2.062991
 H         5.216147         0.105877        -0.786768
 H         3.134404        -1.494092         0.031780
 H         2.067485        -0.472542         2.020151
 H         1.089625         1.060578         1.683182
