19
Iteration:  4671charge 0 multiplicity 1
 C        -0.032244        -0.744317        -0.286054
 C         1.364490        -0.057549        -0.056850
 C         1.723195         1.206314        -0.967060
 C         3.201413         0.794496        -0.328933
 C         4.308046         0.407808        -1.357644
 O         3.329143        -0.634796        -1.912621
 C         2.759129        -0.641618        -0.439708
 O         2.953959         1.262260         1.040486
 C         1.836273         0.421901         1.364760
 H        -0.839184        -0.188097         0.224621
 H        -0.139947        -0.773780        -1.384559
 H        -0.074426        -1.776456        -0.084491
 H         1.682392         0.955257        -2.119114
 H         1.421873         2.316699        -0.794891
 H         4.486323         1.078142        -2.174910
 H         5.299856        -0.087471        -0.945956
 H         3.166088        -1.443581         0.271317
 H         2.088324        -0.490689         1.887466
 H         1.203581         1.152961         1.765851
