19
Iteration:  1893
 C         0.028623        -0.740001        -0.224317
 C         1.351962        -0.067671        -0.203431
 C         1.767428         1.177597        -1.008870
 C         3.222701         0.719387        -0.248134
 C         4.209350         0.516100        -1.357565
 O         3.353724        -0.561454        -1.796271
 C         2.716547        -0.716817        -0.478163
 O         3.064402         1.135189         1.066974
 C         1.730095         0.497929         1.244038
 H        -0.574917        -0.614898         0.658183
 H        -0.629435        -0.303049        -0.927564
 H         0.254278        -1.758639        -0.458745
 H         1.792827         1.029891        -2.132823
 H         1.361545         2.301410        -0.845738
 H         4.358352         1.369588        -2.159308
 H         5.096145         0.009003        -1.075204
 H         3.241274        -1.522360         0.107230
 H         1.823139        -0.213050         2.113719
 H         1.020331         1.304048         1.540499
