19
Iteration:  2321
 C         0.030630        -0.728994        -0.371451
 C         1.323842        -0.026256        -0.120204
 C         1.713543         1.120681        -0.896355
 C         3.110785         0.777029        -0.318514
 C         4.227220         0.444987        -1.335456
 O         3.278240        -0.598392        -1.826529
 C         2.781870        -0.655354        -0.436330
 O         3.114854         1.232262         0.988165
 C         1.809356         0.455926         1.309194
 H        -0.736342        -0.555050         0.345805
 H         0.006886        -0.622720        -1.445309
 H         0.301301        -1.799937        -0.230052
 H         1.443144         1.131781        -1.891151
 H         1.548858         2.064487        -0.582858
 H         4.465210         1.109860        -2.103594
 H         5.211711         0.131158        -0.889551
 H         3.137104        -1.437956         0.229470
 H         2.075257        -0.469632         1.995473
 H         1.038801         1.077588         1.844382
