19
Iteration:  2391charge 0 multiplicity 1
 C        -0.066799        -0.669835        -0.148934
 C         1.292661        -0.137327        -0.143567
 C         1.723258         1.148195        -0.983033
 C         3.142498         0.745292        -0.352267
 C         4.239006         0.551311        -1.314766
 O         3.477225        -0.575114        -1.823813
 C         2.721179        -0.662571        -0.591044
 O         3.058474         1.146840         1.021258
 C         1.810240         0.397921         1.294604
 H        -0.712311         0.182151        -0.089300
 H        -0.191461        -1.403109        -0.984124
 H        -0.345669        -1.179927         0.823727
 H         1.748987         1.170864        -2.094285
 H         1.466307         2.175136        -0.790151
 H         4.492277         1.384906        -2.105748
 H         5.143626         0.051871        -0.947348
 H         3.294230        -1.435074         0.011354
 H         1.874951        -0.316869         2.112805
 H         1.068463         1.165207         1.600083
