19
Iteration:  2993
 C        -0.075093        -0.700032        -0.225600
 C         1.324361        -0.070320        -0.140307
 C         1.627996         1.169526        -0.935225
 C         3.112254         0.806260        -0.327302
 C         4.240056         0.584559        -1.328401
 O         3.476749        -0.636973        -1.781821
 C         2.769448        -0.673126        -0.589018
 O         3.068252         1.127601         1.005461
 C         1.884871         0.397947         1.274663
 H        -0.677928         0.197846        -0.307563
 H        -0.251185        -1.351729        -1.092165
 H        -0.395355        -1.382676         0.621212
 H         1.640209         0.958642        -2.085766
 H         1.209328         2.180602        -0.559649
 H         4.374232         1.321513        -2.081526
 H         5.185195         0.310708        -0.911928
 H         3.002139        -1.590212         0.009117
 H         2.094611        -0.398637         2.059463
 H         1.250147         1.146365         1.853510
