19
Iteration:  4004charge 0 multiplicity 1
 C         0.022439        -0.811467        -0.313289
 C         1.315282        -0.022313        -0.179639
 C         1.618529         1.330425        -0.870858
 C         3.151482         0.839732        -0.378545
 C         4.248134         0.502950        -1.291262
 O         3.433546        -0.698674        -1.739716
 C         2.663844        -0.660754        -0.563163
 O         3.173006         1.085403         1.012021
 C         1.812906         0.455872         1.285715
 H        -0.780351        -0.152738         0.175538
 H        -0.279663        -1.086313        -1.319418
 H         0.033439        -1.829858         0.192737
 H         1.266065         1.435791        -1.986251
 H         1.197370         2.310937        -0.555697
 H         4.355050         1.012037        -2.204411
 H         5.257647         0.392888        -0.795961
 H         3.014125        -1.500410         0.051327
 H         2.006596        -0.144648         2.109086
 H         0.995075         1.178421         1.540149
