19
Iteration:  4438
 C        -0.049489        -0.761827        -0.251235
 C         1.308598        -0.101312        -0.145471
 C         1.751800         1.187111        -0.974498
 C         3.124685         0.853742        -0.375687
 C         4.313243         0.457426        -1.243935
 O         3.384216        -0.587392        -1.822826
 C         2.660488        -0.634101        -0.525039
 O         3.040998         1.246627         0.994354
 C         1.866377         0.344784         1.294322
 H        -0.774201         0.061161        -0.272253
 H        -0.050296        -1.437115        -1.118469
 H        -0.174618        -1.356042         0.699295
 H         1.406955         0.965318        -2.065990
 H         1.292350         2.160639        -0.489429
 H         4.640869         1.235351        -2.008032
 H         5.186209        -0.071000        -0.818639
 H         3.312885        -1.271580         0.200674
 H         2.269748        -0.512979         1.806030
 H         1.128892         0.956013         1.807126
