19
Iteration:   667
 C        -0.011653        -0.751069        -0.250319
 C         1.269267        -0.070926        -0.044290
 C         1.714270         1.320237        -0.619393
 C         3.202314         0.734171        -0.295700
 C         4.175607         0.766861        -1.515653
 O         3.365138        -0.387738        -2.024654
 C         2.680094        -0.609566        -0.725093
 O         3.189620         0.779541         1.121857
 C         1.842648         0.233833         1.337157
 H        -0.788571        -0.221576         0.279877
 H        -0.320055        -0.817158        -1.284815
 H        -0.076946        -1.689489         0.210170
 H         1.538183         1.419322        -1.714392
 H         1.448673         2.286591        -0.065344
 H         4.235653         1.669212        -2.061991
 H         5.220013         0.384388        -1.327031
 H         2.946444        -1.584687        -0.326698
 H         1.975652        -0.697465         1.981174
 H         1.232654         0.916382         1.939213
