19
Iteration:  2778charge 0 multiplicity 1
 C         0.094430        -0.789165        -0.309120
 C         1.306908        -0.025767        -0.170917
 C         1.789274         1.295138        -0.910806
 C         3.158848         0.831680        -0.318415
 C         4.192301         0.530615        -1.398824
 O         3.342318        -0.690454        -1.826180
 C         2.736073        -0.615779        -0.472266
 O         3.070042         1.096105         1.032485
 C         1.763442         0.412858         1.355878
 H        -0.788931        -0.130744        -0.649704
 H         0.030685        -1.564048        -1.102755
 H        -0.123983        -1.447123         0.513686
 H         1.845480         1.319101        -2.023715
 H         1.498138         2.207680        -0.520804
 H         4.107057         1.181691        -2.318591
 H         5.154910         0.370158        -0.953626
 H         3.026828        -1.346586         0.290688
 H         1.867144        -0.458755         2.117192
 H         1.044116         1.123216         1.870777
