19
Iteration:  1300
 C        -0.037834        -0.682617        -0.304289
 C         1.287185        -0.094721        -0.053577
 C         1.725259         1.164518        -0.850360
 C         3.187139         0.750872        -0.309083
 C         4.267590         0.517764        -1.392335
 O         3.403195        -0.517889        -1.876520
 C         2.728447        -0.657447        -0.533032
 O         3.081523         1.188902         0.995285
 C         1.796963         0.334568         1.344869
 H        -0.320342        -0.916490        -1.352306
 H        -0.209808        -1.646945         0.299466
 H        -0.982543        -0.065698        -0.048060
 H         1.579216         1.195016        -1.898617
 H         1.280231         1.975017        -0.479478
 H         4.538041         1.335620        -2.208864
 H         5.176200         0.139030        -1.047727
 H         3.146550        -1.525687         0.010863
 H         2.242311        -0.532401         1.818847
 H         1.094096         0.738899         2.009262
