19
Iteration:  2539
 C        -0.011304        -0.754245        -0.146247
 C         1.322139        -0.035885        -0.128053
 C         1.755648         1.262850        -0.989698
 C         3.059239         0.853367        -0.393330
 C         4.258902         0.451241        -1.220135
 O         3.466187        -0.658655        -1.872913
 C         2.713715        -0.676582        -0.555226
 O         3.005598         1.191339         1.018971
 C         1.823371         0.377425         1.259720
 H        -0.752737         0.072384         0.156584
 H        -0.439337        -0.885962        -1.129436
 H         0.059581        -1.653639         0.427973
 H         1.713102         1.121766        -2.144582
 H         1.397386         2.353395        -0.641151
 H         4.601224         1.188614        -1.981825
 H         5.280378         0.032768        -0.804577
 H         3.077555        -1.464629         0.129955
 H         2.198562        -0.476781         1.763387
 H         1.007228         0.873573         1.789446
