19
Iteration:  2049charge 0 multiplicity 1
 C        -0.076860        -0.793051        -0.240306
 C         1.283915        -0.038875        -0.144634
 C         1.748521         1.219238        -0.937628
 C         3.159697         0.791557        -0.340508
 C         4.177159         0.542142        -1.401679
 O         3.492999        -0.651998        -1.813618
 C         2.760317        -0.584289        -0.524058
 O         3.116279         1.091258         1.064409
 C         1.741173         0.462176         1.329706
 H        -0.867967        -0.088242        -0.269514
 H        -0.124566        -1.350349        -1.233445
 H        -0.188895        -1.517109         0.611402
 H         1.828505         1.168531        -2.051231
 H         1.281444         2.272540        -0.524028
 H         4.321347         1.208941        -2.390285
 H         5.116740         0.101361        -1.026702
 H         3.134927        -1.465811         0.025444
 H         1.937278        -0.341224         2.050038
 H         1.044378         1.217205         1.738080
