19
Iteration:   864charge 0 multiplicity 1
 C        -0.049125        -0.710642        -0.191556
 C         1.345997        -0.054391        -0.132838
 C         1.741981         1.309747        -0.780592
 C         3.139798         0.748637        -0.331086
 C         4.284508         0.684460        -1.431805
 O         3.408212        -0.478838        -1.982050
 C         2.671178        -0.665441        -0.656692
 O         3.104368         0.868023         1.153875
 C         1.810323         0.340996         1.329881
 H        -0.831789        -0.347248        -0.909241
 H         0.054717        -1.826828        -0.515896
 H        -0.423525        -0.818108         0.899786
 H         1.431489         1.383496        -1.854208
 H         1.354451         2.208360        -0.190150
 H         4.261031         1.484998        -2.106908
 H         5.373909         0.296744        -1.301980
 H         3.022528        -1.554942        -0.194486
 H         1.899192        -0.526407         1.969865
 H         1.079898         1.051591         1.618801
