19
Iteration:  3582
 C         0.008264        -0.808297        -0.257860
 C         1.245710         0.070537        -0.112487
 C         1.800429         1.313158        -0.911480
 C         3.147467         0.766915        -0.358299
 C         4.260323         0.526994        -1.479501
 O         3.505868        -0.758609        -1.775519
 C         2.615084        -0.617148        -0.502489
 O         3.045285         1.101672         1.089934
 C         1.769914         0.472858         1.289721
 H        -0.818859        -0.510463         0.264550
 H        -0.090724        -1.153886        -1.273611
 H         0.334419        -1.721608         0.170076
 H         1.622331         1.316081        -2.054008
 H         1.460509         2.351759        -0.616667
 H         4.137445         1.240852        -2.315984
 H         5.348500         0.249394        -1.192562
 H         3.024324        -1.305271         0.203175
 H         1.820248        -0.339819         2.072579
 H         0.932899         1.102925         1.535581
