19
Iteration:   140
 C         0.026676        -0.682783        -0.251922
 C         1.356050        -0.069405        -0.101303
 C         1.568316         1.488985        -0.358823
 C         3.092470         0.809473        -0.232670
 C         4.054775         0.823220        -1.419521
 O         3.140338        -0.072987        -2.198642
 C         2.613903        -0.520542        -0.865060
 O         3.399463         0.511291         1.162934
 C         2.102935        -0.245952         1.264385
 H        -0.217631        -0.507757        -1.286709
 H         0.099879        -1.796891        -0.052927
 H        -0.825043        -0.041264         0.367160
 H         1.305882         1.892181        -1.315363
 H         1.270026         2.207049         0.397145
 H         4.352592         1.785066        -1.832764
 H         5.139363         0.372242        -1.212228
 H         3.292836        -1.431058        -0.603170
 H         2.353331        -1.358042         1.348418
 H         1.562110         0.050688         2.162258
