19
Iteration:  4259
 C        -0.115126        -0.621935        -0.196361
 C         1.411771        -0.168937        -0.173259
 C         1.793924         1.030116        -0.955924
 C         3.174565         0.729716        -0.312615
 C         4.184394         0.611013        -1.309067
 O         3.405237        -0.519124        -1.835106
 C         2.803317        -0.799573        -0.522926
 O         3.098879         1.172319         1.044989
 C         1.736637         0.481970         1.237350
 H        -0.804754         0.213257        -0.046727
 H        -0.319475        -1.224124        -1.116424
 H        -0.354586        -1.383598         0.518039
 H         1.845456         1.065525        -2.005529
 H         1.177232         1.924832        -0.620594
 H         4.256125         1.602038        -1.890968
 H         5.120345         0.179494        -1.081029
 H         3.162990        -1.601165         0.088087
 H         1.814815        -0.140244         2.078285
 H         0.924020         1.184051         1.342522
