19
Iteration:  4733charge 0 multiplicity 1
 C        -0.091511        -0.730875        -0.128834
 C         1.290048        -0.065872        -0.147339
 C         1.744402         1.149090        -0.947371
 C         3.137168         0.852455        -0.372457
 C         4.305329         0.565006        -1.368472
 O         3.524578        -0.661497        -1.854628
 C         2.737123        -0.622367        -0.533498
 O         3.083542         0.994295         1.017060
 C         1.688398         0.542583         1.303673
 H        -0.932570         0.012704         0.117338
 H        -0.469144        -1.123281        -1.102144
 H        -0.027296        -1.451514         0.710696
 H         1.803903         0.877892        -1.919014
 H         1.340146         2.158291        -0.781910
 H         4.523887         1.200171        -2.207228
 H         5.274914         0.342108        -0.953205
 H         3.166568        -1.479534        -0.076930
 H         1.475432        -0.215045         2.150176
 H         1.142735         1.488137         1.622268
