19
Iteration:  4128
 C        -0.027764        -0.702929        -0.178944
 C         1.401008        -0.121553        -0.216784
 C         1.832526         1.210629        -0.926944
 C         3.139434         0.798320        -0.282006
 C         4.219796         0.539680        -1.314633
 O         3.411200        -0.649350        -1.838989
 C         2.715235        -0.676683        -0.536001
 O         3.046390         1.170317         1.017522
 C         1.721300         0.417822         1.250390
 H        -0.768946        -0.157290         0.353325
 H        -0.418562        -0.679790        -1.217737
 H        -0.109293        -1.697694         0.148793
 H         1.693159         1.210479        -2.020502
 H         1.418657         2.093569        -0.381629
 H         4.198542         1.138378        -2.264502
 H         5.146184         0.302967        -0.971261
 H         3.196183        -1.458250         0.115464
 H         1.940303        -0.367697         1.914251
 H         1.120842         1.116333         1.754841
