19
Iteration:  2542charge 0 multiplicity 1
 C        -0.007510        -0.751454        -0.124186
 C         1.306359        -0.023877        -0.136866
 C         1.753388         1.274844        -0.986172
 C         3.076689         0.872361        -0.370996
 C         4.239204         0.475151        -1.229188
 O         3.497981        -0.674770        -1.869901
 C         2.701205        -0.666468        -0.571253
 O         3.014845         1.174126         1.002693
 C         1.815004         0.379399         1.260481
 H        -0.662718         0.083116         0.072486
 H        -0.422126        -0.937346        -1.174191
 H         0.040229        -1.714475         0.525874
 H         1.802401         1.125240        -2.123186
 H         1.322056         2.262678        -0.640892
 H         4.563872         1.131464        -2.002365
 H         5.217958        -0.041813        -0.842349
 H         2.965585        -1.528397         0.065561
 H         2.178588        -0.524965         1.938086
 H         0.930956         0.860464         1.781103
