19
Iteration:   956charge 0 multiplicity 1
 C        -0.007909        -0.781124        -0.264756
 C         1.316977         0.005748        -0.202524
 C         1.603736         1.396673        -0.787653
 C         3.197413         0.810688        -0.329899
 C         4.305224         0.519801        -1.367801
 O         3.361050        -0.560863        -1.910919
 C         2.658325        -0.598937        -0.564599
 O         3.195638         0.997117         1.092597
 C         1.795018         0.302466         1.289879
 H        -0.507928        -1.048634         0.699322
 H        -0.868990        -0.455284        -0.973347
 H         0.321651        -1.723755        -0.633725
 H         1.424634         1.477712        -1.829566
 H         1.168658         2.114109        -0.158072
 H         4.324184         1.509631        -2.024792
 H         5.238881        -0.057994        -1.093901
 H         2.940339        -1.563965        -0.085795
 H         2.148695        -0.630488         1.731357
 H         1.235793         0.959943         2.016947
