19
Iteration:  1712
 C        -0.029994        -0.697582        -0.331047
 C         1.340109        -0.115888        -0.137645
 C         1.841302         1.184627        -0.907656
 C         3.190117         0.836800        -0.339872
 C         4.216120         0.508305        -1.393511
 O         3.308075        -0.612843        -1.836690
 C         2.797791        -0.668164        -0.484041
 O         3.028640         1.156246         1.048763
 C         1.783646         0.431252         1.375191
 H        -0.681548        -0.255942        -1.120974
 H        -0.000608        -1.815919        -0.630832
 H        -0.558437        -0.671231         0.660097
 H         1.542220         1.111861        -1.966617
 H         1.379852         2.071144        -0.462195
 H         4.391934         1.238670        -2.105472
 H         5.248199        -0.018877        -1.147384
 H         3.461440        -1.473692        -0.050435
 H         1.913335        -0.310304         2.127954
 H         1.000235         1.101604         1.757276
