19
Iteration:  1485
 C        -0.032595        -0.723556        -0.205527
 C         1.308401        -0.030648        -0.071970
 C         1.757978         1.251944        -0.875254
 C         3.168354         0.830845        -0.367772
 C         4.246605         0.532470        -1.375903
 O         3.430579        -0.600885        -1.856134
 C         2.778021        -0.620834        -0.557867
 O         3.021100         1.030411         0.978307
 C         1.757230         0.369455         1.329863
 H        -0.413111        -0.543573        -1.197329
 H         0.172521        -1.796233        -0.015757
 H        -0.776723        -0.348435         0.466596
 H         1.547573         1.007889        -1.928840
 H         1.299417         2.234784        -0.799296
 H         4.598902         1.346868        -2.162505
 H         5.076319         0.111567        -0.869678
 H         3.196989        -1.380112         0.057313
 H         1.986774        -0.446502         2.059975
 H         1.031242         1.045668         1.756057
