19
Iteration:  3606
 C        -0.004401        -0.793941        -0.127248
 C         1.304339        -0.006238        -0.200656
 C         1.831648         1.262924        -1.008086
 C         3.150468         0.788754        -0.280068
 C         4.233119         0.540601        -1.376286
 O         3.433885        -0.678496        -1.810228
 C         2.782413        -0.661224        -0.526552
 O         3.035042         1.088968         1.071669
 C         1.674697         0.501185         1.217126
 H        -0.521793        -0.247725         0.589380
 H        -0.583109        -0.801005        -1.055150
 H         0.058777        -1.809574         0.196057
 H         1.784870         1.206696        -2.172977
 H         1.445616         2.259670        -0.715083
 H         4.237798         1.237329        -2.178504
 H         5.287579         0.186815        -1.026078
 H         3.150630        -1.491730         0.066206
 H         1.761445        -0.443379         1.828366
 H         0.963850         1.170560         1.736881
