19
Iteration:    79
 C         0.009954        -0.628648        -0.197911
 C         1.382799        -0.206326        -0.113940
 C         1.822614         1.215525        -0.419173
 C         3.180265         0.634994        -0.221695
 C         4.055243         0.974691        -1.406613
 O         3.068222         0.178375        -2.159564
 C         2.613602        -0.575237        -0.991078
 O         3.290254         0.496564         1.166123
 C         2.033286        -0.148229         1.347880
 H        -0.011715        -1.762345        -0.218517
 H        -0.522545        -0.387701         0.738803
 H        -0.519130        -0.246091        -0.976499
 H         1.652261         1.450741        -1.492339
 H         1.574743         2.040129         0.285400
 H         4.032316         2.055722        -1.744680
 H         4.989327         0.512335        -1.516091
 H         2.986192        -1.553781        -1.103228
 H         2.252161        -1.128905         1.735381
 H         1.410066         0.442387         2.040934
