19
Iteration:  4072
 C        -0.088970        -0.707969        -0.249627
 C         1.394655        -0.078704        -0.168776
 C         1.729322         1.231590        -0.848203
 C         3.125679         0.795864        -0.334622
 C         4.215439         0.564085        -1.362585
 O         3.445025        -0.661118        -1.837072
 C         2.749190        -0.695691        -0.523439
 O         3.062569         1.155867         1.030356
 C         1.796013         0.390071         1.251839
 H        -0.761486         0.146736        -0.226613
 H        -0.140272        -1.343742        -1.151012
 H        -0.199602        -1.354301         0.571230
 H         1.360827         1.071465        -1.933965
 H         1.427568         2.234901        -0.562200
 H         4.562880         1.206086        -2.181708
 H         5.098001         0.236856        -0.847429
 H         3.092489        -1.444498         0.230730
 H         2.003069        -0.357774         1.951900
 H         1.135602         1.116751         1.709313
