19
Iteration:  4913
 C        -0.057216        -0.761556        -0.290069
 C         1.274847        -0.015257        -0.095760
 C         1.691512         1.248945        -0.939384
 C         3.082546         0.832629        -0.398916
 C         4.218358         0.482442        -1.403660
 O         3.469808        -0.638629        -1.779305
 C         2.772909        -0.682978        -0.409762
 O         3.105748         1.103972         1.005277
 C         1.841175         0.422219         1.280609
 H        -0.820597         0.029570        -0.199887
 H         0.011110        -1.034456        -1.344836
 H        -0.204382        -1.564938         0.448246
 H         1.640317         1.310726        -2.071114
 H         1.296559         2.255821        -0.639291
 H         4.328778         1.224639        -2.168045
 H         5.149131         0.235358        -0.877485
 H         3.114522        -1.426472         0.304618
 H         2.013236        -0.397509         2.022617
 H         1.129820         1.022429         1.823091
