19
Iteration:   311
 C        -0.076956        -0.776391        -0.243649
 C         1.289432        -0.039584        -0.132278
 C         1.698839         1.386056        -0.454897
 C         3.141487         0.689169        -0.319577
 C         4.053633         0.902659        -1.422407
 O         3.260764        -0.149101        -2.139345
 C         2.638874        -0.643715        -0.858590
 O         3.368235         0.526547         1.177380
 C         2.005055         0.093142         1.356429
 H         0.139241        -1.583036        -0.965898
 H        -0.339214        -1.217030         0.729251
 H        -0.867727        -0.167671        -0.629879
 H         1.613705         1.819063        -1.467366
 H         1.542341         2.210102         0.335856
 H         4.072991         1.862994        -1.998109
 H         4.969204         0.525983        -1.217967
 H         3.050687        -1.587901        -0.524514
 H         2.017945        -0.828504         2.016419
 H         1.490010         1.004846         1.834901
