19
Iteration:  3346
 C        -0.057692        -0.683135        -0.115192
 C         1.262300        -0.034445        -0.092959
 C         1.799436         1.182325        -0.975894
 C         3.191870         0.761452        -0.334994
 C         4.309040         0.533682        -1.315252
 O         3.441414        -0.603380        -1.876235
 C         2.729308        -0.724388        -0.528557
 O         2.994918         1.124974         1.005419
 C         1.784626         0.448702         1.231414
 H        -0.825153         0.113776        -0.208494
 H        -0.114386        -1.472264        -0.888359
 H        -0.517088        -1.250918         0.680436
 H         1.869291         0.933917        -2.072698
 H         1.173915         2.077066        -0.959490
 H         4.498721         1.342550        -2.181539
 H         5.233272         0.158641        -0.769943
 H         3.198255        -1.538606         0.129313
 H         1.993018        -0.303847         1.990335
 H         1.037893         1.205448         1.619137
