19
Iteration:  4068
 C        -0.070343        -0.707924        -0.257606
 C         1.419746        -0.092159        -0.192793
 C         1.734694         1.190861        -0.866640
 C         3.176039         0.797597        -0.310679
 C         4.197476         0.526776        -1.366542
 O         3.414978        -0.618076        -1.854161
 C         2.739380        -0.720873        -0.500420
 O         3.031930         1.156971         1.050389
 C         1.789855         0.433082         1.240143
 H        -0.732618         0.218353        -0.199949
 H        -0.153380        -1.329516        -1.149366
 H        -0.166514        -1.342226         0.718131
 H         1.465005         1.162862        -1.965696
 H         1.400445         2.140247        -0.383549
 H         4.467950         1.136918        -2.210191
 H         5.271043         0.362376        -0.892815
 H         3.099476        -1.417988         0.214611
 H         2.066787        -0.421090         1.929592
 H         1.043454         1.158404         1.680633
