19
Iteration:  1369
 C         0.006670        -0.785712        -0.185509
 C         1.327758        -0.031980        -0.209723
 C         1.786692         1.305532        -0.847850
 C         3.118758         0.806105        -0.351441
 C         4.208261         0.540695        -1.372789
 O         3.450287        -0.582847        -1.904314
 C         2.633246        -0.672755        -0.605979
 O         3.078523         1.038087         1.087197
 C         1.790771         0.422861         1.355895
 H        -0.048466        -1.557494        -0.977579
 H        -0.184669        -1.254446         0.734193
 H        -0.867439        -0.177424        -0.455869
 H         1.754116         1.300194        -1.949548
 H         1.356425         2.271639        -0.531180
 H         4.325431         1.271079        -2.136166
 H         5.216643         0.251462        -0.968570
 H         3.140955        -1.526139        -0.109190
 H         1.985486        -0.526842         1.916341
 H         1.149750         1.068806         1.988229
