19
Iteration:   967
 C         0.029533        -0.786961        -0.228876
 C         1.281218         0.029170        -0.155230
 C         1.662174         1.325050        -0.836163
 C         3.207164         0.776297        -0.252256
 C         4.228360         0.511691        -1.399860
 O         3.355917        -0.495871        -1.928912
 C         2.670009        -0.603497        -0.620822
 O         3.183937         0.965715         1.128861
 C         1.784938         0.306509         1.283875
 H        -0.277743        -1.052505         0.813524
 H        -0.825246        -0.273559        -0.814541
 H         0.256147        -1.691605        -0.767342
 H         1.631558         1.320507        -1.899578
 H         1.301918         2.264057        -0.518583
 H         4.456116         1.314767        -2.262548
 H         5.282591         0.298160        -1.047771
 H         3.036767        -1.482902        -0.041523
 H         1.856207        -0.548516         1.986136
 H         1.039009         1.056246         1.695871
