19
Iteration:  4755
 C        -0.076310        -0.686189        -0.218043
 C         1.368937        -0.113963        -0.118961
 C         1.746880         1.147433        -1.005988
 C         3.187049         0.739995        -0.308957
 C         4.235854         0.505835        -1.347768
 O         3.390142        -0.570411        -1.848447
 C         2.749307        -0.727762        -0.477975
 O         3.054529         1.226147         1.028045
 C         1.791987         0.473994         1.279796
 H        -0.977290        -0.020036        -0.281581
 H        -0.123817        -1.157501        -1.231588
 H        -0.294586        -1.450240         0.545771
 H         1.609542         1.023194        -2.006799
 H         1.532684         2.130783        -0.595905
 H         4.524717         1.178612        -2.113512
 H         5.169335         0.110544        -0.938236
 H         3.176062        -1.496019         0.157759
 H         2.004878        -0.431067         1.960245
 H         0.974762         0.974275         1.834296
