19
Iteration:  1648
 C        -0.054069        -0.756499        -0.168531
 C         1.298902        -0.018224        -0.120974
 C         1.775195         1.224077        -0.880476
 C         3.170246         0.802336        -0.413402
 C         4.285799         0.527509        -1.360946
 O         3.456337        -0.577327        -1.877067
 C         2.663526        -0.624005        -0.490782
 O         3.084321         1.085517         1.015259
 C         1.748818         0.352551         1.213755
 H        -0.349120        -1.216657        -1.092789
 H        -0.020254        -1.482952         0.665651
 H        -0.841142        -0.108595         0.019207
 H         1.530646         1.210108        -1.993860
 H         1.338942         2.176806        -0.373996
 H         4.548184         1.400858        -1.919724
 H         5.216197         0.112578        -0.859956
 H         2.985237        -1.445932         0.168817
 H         1.896536        -0.520540         1.884920
 H         1.141166         1.072195         1.768960
