19
Iteration:  2981charge 0 multiplicity 1
 C        -0.064207        -0.711157        -0.216883
 C         1.297063        -0.069022        -0.183076
 C         1.748817         1.236604        -0.969693
 C         3.118961         0.816192        -0.418328
 C         4.243026         0.593058        -1.377371
 O         3.461624        -0.635882        -1.788842
 C         2.691396        -0.658597        -0.432915
 O         3.096146         1.143736         1.004981
 C         1.816456         0.322146         1.324899
 H        -1.001800        -0.186707        -0.303961
 H         0.034357        -1.371415        -1.079317
 H        -0.154377        -1.266160         0.780876
 H         1.461956         1.330639        -2.091867
 H         1.346360         2.205307        -0.494912
 H         4.457260         1.183561        -2.184504
 H         5.135305         0.286612        -0.826905
 H         3.164048        -1.435175         0.223378
 H         2.210416        -0.653664         1.786332
 H         0.961029         0.854271         1.840610
