19
Iteration:  1226charge 0 multiplicity 1
 C        -0.043576        -0.825185        -0.182761
 C         1.339029        -0.140222        -0.130067
 C         1.875278         1.177662        -0.870695
 C         3.188025         0.792731        -0.263703
 C         4.194060         0.573960        -1.385900
 O         3.364467        -0.563432        -1.936665
 C         2.767259        -0.625442        -0.649530
 O         3.121937         1.069169         1.107653
 C         1.663696         0.494417         1.307861
 H        -0.482715        -0.450800        -1.105321
 H        -0.105032        -1.844013        -0.180558
 H        -0.763010        -0.494703         0.525716
 H         1.895922         1.115181        -1.999926
 H         1.473805         2.254522        -0.566613
 H         4.363561         1.404490        -2.045750
 H         5.196473         0.156642        -1.114828
 H         3.000436        -1.509032        -0.042116
 H         1.554045        -0.066116         2.290292
 H         1.037874         1.383496         1.430932
