19
Iteration:  2042charge 0 multiplicity 1
 C        -0.059187        -0.811081        -0.253699
 C         1.290532        -0.022267        -0.117987
 C         1.735201         1.216991        -0.970510
 C         3.171474         0.790396        -0.284193
 C         4.205866         0.517025        -1.460910
 O         3.464581        -0.621182        -1.840497
 C         2.740763        -0.635842        -0.507015
 O         3.105348         1.081939         1.095563
 C         1.756071         0.478465         1.323818
 H        -0.840674        -0.014832        -0.247705
 H         0.133195        -1.408842        -1.141788
 H        -0.320512        -1.451449         0.583005
 H         1.660209         1.144322        -2.030820
 H         1.360887         2.135139        -0.698651
 H         4.429935         1.292500        -2.209987
 H         5.241445         0.406215        -1.090452
 H         3.023145        -1.504314         0.044451
 H         1.722016        -0.305780         2.145744
 H         1.140491         1.348717         1.643802
