19
Iteration:  3976
 C        -0.062677        -0.751696        -0.268612
 C         1.290088         0.015582        -0.108357
 C         1.722463         1.313501        -0.942424
 C         3.126225         0.820316        -0.406592
 C         4.238296         0.479947        -1.366230
 O         3.478811        -0.679378        -1.779216
 C         2.752815        -0.655787        -0.514919
 O         3.020122         1.171798         1.005372
 C         1.806753         0.331495         1.354038
 H        -0.755547        -0.261200         0.386382
 H        -0.428176        -0.686275        -1.330571
 H         0.011221        -1.812970        -0.042523
 H         1.553634         1.075742        -2.007236
 H         1.334672         2.308762        -0.781791
 H         4.723064         1.034905        -2.268484
 H         5.184663         0.228866        -0.774377
 H         3.348173        -1.370462         0.142125
 H         2.250979        -0.519482         2.016748
 H         1.058278         0.906793         1.908891
