19
Iteration:  2728
 C        -0.065644        -0.674517        -0.256051
 C         1.338170        -0.145019        -0.106100
 C         1.775888         1.197608        -0.989621
 C         3.093490         0.816198        -0.372024
 C         4.210248         0.541101        -1.318886
 O         3.454163        -0.585982        -1.828664
 C         2.764580        -0.750904        -0.498664
 O         3.017096         1.146953         1.016371
 C         1.858712         0.428457         1.327770
 H        -0.795989        -0.069043         0.222833
 H        -0.455669        -0.721977        -1.280937
 H        -0.140010        -1.709084         0.163188
 H         1.547232         1.059816        -2.051728
 H         1.313211         2.261260        -0.706916
 H         4.428241         1.299476        -2.030802
 H         5.176164         0.041677        -0.881813
 H         3.244090        -1.409623         0.244172
 H         2.074035        -0.375133         2.005770
 H         1.119698         1.112591         1.704795
