19
Iteration:  3615
 C        -0.051906        -0.707267        -0.117831
 C         1.366572        -0.079252        -0.222343
 C         1.753179         1.193147        -1.003038
 C         3.200514         0.754364        -0.344721
 C         4.281187         0.551855        -1.323584
 O         3.391104        -0.609427        -1.800048
 C         2.735043        -0.685347        -0.528568
 O         3.025212         1.121122         1.082432
 C         1.754857         0.452521         1.186241
 H        -0.765984        -0.406383         0.573121
 H        -0.568402        -0.739197        -1.067336
 H         0.173422        -1.703603         0.167250
 H         1.890867         1.055013        -2.115081
 H         1.308238         2.138151        -0.639641
 H         4.369963         1.370178        -2.051743
 H         5.245021         0.100714        -0.976396
 H         3.167008        -1.285957         0.240256
 H         1.835203        -0.213790         2.067286
 H         0.965124         1.157489         1.359428
