19
Iteration:  2090
 C        -0.063238        -0.658511        -0.201711
 C         1.340381        -0.075449        -0.170394
 C         1.708923         1.165048        -0.942720
 C         3.115031         0.876576        -0.347922
 C         4.309896         0.439669        -1.336830
 O         3.481643        -0.616079        -1.837031
 C         2.699348        -0.707785        -0.575999
 O         2.991417         1.217786         1.027604
 C         1.811152         0.386540         1.333601
 H        -0.669029        -0.210089         0.623158
 H        -0.450553        -0.654218        -1.219596
 H         0.026845        -1.744856         0.061424
 H         1.628926         0.934264        -2.013615
 H         1.261818         2.119449        -0.760930
 H         4.562473         1.195909        -2.008950
 H         5.309626         0.190976        -0.957760
 H         3.143459        -1.456432         0.145954
 H         2.237847        -0.494351         1.792644
 H         1.073887         0.805837         2.019139
