19
Iteration:  4001charge 0 multiplicity 1
 C         0.001801        -0.805933        -0.315050
 C         1.300615        -0.019397        -0.180356
 C         1.625508         1.315596        -0.869883
 C         3.112625         0.855291        -0.409205
 C         4.249537         0.481756        -1.263242
 O         3.437932        -0.718420        -1.738930
 C         2.679992        -0.615304        -0.542529
 O         3.177228         1.089733         1.011408
 C         1.823949         0.450991         1.252289
 H        -0.758642        -0.158068         0.224216
 H        -0.266064        -1.021660        -1.376572
 H         0.085645        -1.879212         0.200565
 H         1.306940         1.430291        -1.846488
 H         1.164390         2.258404        -0.447571
 H         4.380466         1.027505        -2.186728
 H         5.323213         0.465986        -0.801733
 H         3.006282        -1.508451        -0.041819
 H         2.106277        -0.252055         2.115142
 H         1.040062         1.157822         1.567146
