19
Iteration:  2191
 C         0.043495        -0.764973        -0.304970
 C         1.382685        -0.043888        -0.107229
 C         1.747593         1.232016        -0.960780
 C         3.123180         0.817465        -0.274353
 C         4.205750         0.429168        -1.328544
 O         3.314941        -0.647268        -1.864912
 C         2.698839        -0.692657        -0.552981
 O         3.071635         1.271831         1.063628
 C         1.865822         0.404142         1.318101
 H        -0.645998         0.042438        -0.425252
 H        -0.054243        -1.255125        -1.307118
 H        -0.170430        -1.480180         0.542874
 H         1.712377         1.165586        -2.024974
 H         1.243134         2.090519        -0.540218
 H         4.290334         1.203858        -2.091229
 H         5.119270         0.204747        -0.766789
 H         3.074779        -1.485466         0.183228
 H         2.119832        -0.523220         1.763025
 H         1.070796         0.894546         1.846649
