19
Iteration:  3093charge 0 multiplicity 1
 C         0.046221        -0.855806        -0.343545
 C         1.282409         0.012383        -0.042237
 C         1.672982         1.276716        -0.890058
 C         3.142219         0.889330        -0.441973
 C         4.268893         0.386350        -1.336574
 O         3.397013        -0.674215        -1.850499
 C         2.684015        -0.590643        -0.456597
 O         3.142412         1.213613         0.994799
 C         1.772232         0.403852         1.331882
 H        -0.809475        -0.352158         0.036640
 H        -0.069884        -0.895017        -1.445925
 H        -0.017074        -1.872197         0.076247
 H         1.437101         1.011694        -1.908372
 H         1.346901         2.194929        -0.303712
 H         4.723888         1.063423        -2.046397
 H         5.031674         0.061743        -0.683994
 H         3.045506        -1.478216         0.101014
 H         1.887280        -0.446027         2.092664
 H         1.121775         1.242314         1.748603
