19
Iteration:   769
 C         0.024301        -0.709263        -0.295208
 C         1.370930        -0.127046        -0.186696
 C         1.769582         1.283766        -0.772645
 C         3.157346         0.799115        -0.265410
 C         4.064455         0.716049        -1.423241
 O         3.294348        -0.398582        -1.929449
 C         2.688891        -0.695539        -0.642491
 O         3.234058         0.786590         1.147667
 C         1.845823         0.323754         1.337115
 H        -0.035953        -1.794740        -0.345759
 H        -0.574744        -0.361946         0.594690
 H        -0.488480        -0.288099        -1.086034
 H         1.678864         1.272232        -1.853652
 H         1.292899         2.154740        -0.392670
 H         3.940623         1.606475        -2.065073
 H         5.137427         0.481172        -1.248570
 H         3.227097        -1.505819        -0.101583
 H         1.926740        -0.573044         2.059541
 H         1.144250         1.124493         1.760425
