19
Iteration:  1192
 C        -0.056477        -0.699260        -0.216974
 C         1.353782        -0.070321        -0.147712
 C         1.740068         1.173591        -0.926403
 C         3.154388         0.797883        -0.360565
 C         4.261011         0.586182        -1.333435
 O         3.373724        -0.554358        -1.834338
 C         2.732843        -0.625702        -0.548547
 O         3.047708         1.098691         0.996151
 C         1.841658         0.287150         1.365033
 H        -0.241010        -0.783450        -1.279211
 H        -0.191847        -1.607958         0.259470
 H        -0.735071         0.092359         0.101191
 H         1.644530         1.016579        -2.015336
 H         1.312833         2.162471        -0.576355
 H         4.295908         1.409444        -2.089785
 H         5.203258         0.163802        -1.025903
 H         3.129752        -1.465529         0.072575
 H         2.117240        -0.620663         1.977243
 H         1.148726         0.950900         1.839797
