19
Iteration:  3029charge 0 multiplicity 1
 C        -0.100659        -0.687813        -0.185144
 C         1.328936        -0.090789        -0.075032
 C         1.798996         1.077224        -0.955389
 C         3.187930         0.715099        -0.363028
 C         4.276317         0.639655        -1.385852
 O         3.409909        -0.547972        -1.858622
 C         2.898360        -0.748007        -0.463607
 O         2.978567         1.083321         1.010522
 C         1.723875         0.499478         1.300983
 H        -0.868299         0.001870         0.309732
 H        -0.474687        -0.661324        -1.219050
 H        -0.266953        -1.574102         0.407764
 H         1.674603         0.977044        -2.040101
 H         1.519401         2.216708        -0.720796
 H         4.330255         1.440005        -2.240538
 H         5.198466         0.206346        -1.121237
 H         3.296847        -1.682322        -0.032464
 H         1.720828        -0.285606         2.051397
 H         1.046435         1.354301         1.531387
