19
Iteration:  1456
 C        -0.089965        -0.736601        -0.240140
 C         1.302012        -0.076246        -0.269281
 C         1.767981         1.239203        -0.897979
 C         3.207994         0.756491        -0.317742
 C         4.137963         0.605707        -1.473316
 O         3.505805        -0.595182        -1.769615
 C         2.641671        -0.681716        -0.513496
 O         3.167304         1.034749         1.127054
 C         1.786920         0.462889         1.298932
 H        -0.664632        -0.601673        -1.224630
 H         0.182317        -1.801400        -0.207354
 H        -0.581684        -0.474615         0.774136
 H         1.595819         1.163065        -1.970423
 H         1.263792         2.128328        -0.577729
 H         4.129833         1.417332        -2.179794
 H         5.217636         0.418240        -1.258195
 H         3.024589        -1.562817         0.086379
 H         1.808376        -0.274442         2.083403
 H         0.962759         1.136577         1.545181
