19
Iteration:  1161
 C        -0.084905        -0.736429        -0.224174
 C         1.291033        -0.007420        -0.250902
 C         1.640460         1.299142        -0.820851
 C         3.136987         0.812984        -0.351771
 C         4.270725         0.519969        -1.406271
 O         3.484946        -0.644797        -1.866646
 C         2.682163        -0.613242        -0.538545
 O         3.042163         1.121846         1.046393
 C         1.936277         0.290601         1.366958
 H        -0.076613        -1.426591        -1.059073
 H        -0.234629        -1.187011         0.703890
 H        -0.820813        -0.032968        -0.534259
 H         1.575193         1.412408        -1.946983
 H         1.145572         2.186011        -0.216438
 H         4.376216         1.282350        -2.163025
 H         5.322588         0.144833        -0.963976
 H         3.077327        -1.484141        -0.047967
 H         2.221184        -0.706561         1.835952
 H         1.262260         0.814375         2.049546
