19
Iteration:  3829
 C        -0.066800        -0.711845        -0.254265
 C         1.342648        -0.095818        -0.065128
 C         1.772174         1.123984        -1.011367
 C         3.133227         0.812642        -0.328857
 C         4.172187         0.549995        -1.375735
 O         3.431611        -0.563975        -1.816804
 C         2.821240        -0.719364        -0.491066
 O         3.102122         1.051677         1.021804
 C         1.729352         0.527754         1.326474
 H        -0.889474        -0.116385         0.113299
 H        -0.150346        -0.813942        -1.297001
 H        -0.054018        -1.666300         0.244046
 H         1.641568         0.803900        -2.020945
 H         1.211565         2.131878        -0.771958
 H         4.383751         1.402206        -2.168796
 H         5.212485         0.248406        -1.027924
 H         3.220448        -1.546562         0.144667
 H         1.811072        -0.084832         2.247925
 H         0.983276         1.407777         1.488317
