19
Iteration:  2838charge 0 multiplicity 1
 C        -0.075039        -0.742909        -0.157941
 C         1.333845        -0.061317        -0.125427
 C         1.696212         1.188378        -0.919449
 C         3.093169         0.792932        -0.318608
 C         4.247856         0.562027        -1.262463
 O         3.460973        -0.638400        -1.902749
 C         2.768401        -0.665007        -0.595480
 O         3.083424         1.157577         1.043092
 C         1.773816         0.398995         1.223059
 H        -0.871475        -0.163440         0.185004
 H        -0.084850        -0.892619        -1.226884
 H        -0.053572        -1.662269         0.485185
 H         1.704457         1.047109        -2.039612
 H         1.376611         2.301613        -0.668411
 H         4.489521         1.113537        -2.119340
 H         5.170037         0.228428        -0.737588
 H         3.171590        -1.472906         0.057580
 H         1.908170        -0.332100         2.019469
 H         1.174236         1.268987         1.502586
