19
Iteration:  2425charge 0 multiplicity 1
 C        -0.011371        -0.701259        -0.181433
 C         1.316057        -0.082989        -0.061857
 C         1.708929         1.197206        -0.988206
 C         3.144866         0.778947        -0.362460
 C         4.277712         0.456205        -1.314704
 O         3.383004        -0.551543        -1.842765
 C         2.698285        -0.658852        -0.508342
 O         3.010835         1.208887         0.990046
 C         1.851970         0.343003         1.266703
 H        -0.722381         0.034809        -0.444782
 H         0.013639        -1.209103        -1.168531
 H        -0.105679        -1.420126         0.638196
 H         1.668790         1.108576        -2.081874
 H         1.535518         2.098641        -0.478528
 H         4.769696         1.298096        -1.971425
 H         5.131493        -0.019247        -0.806414
 H         3.119190        -1.533734         0.074059
 H         2.112260        -0.488064         1.908925
 H         1.086233         1.051541         1.606618
