19
Iteration:  1239charge 0 multiplicity 1
 C        -0.061419        -0.850219        -0.227972
 C         1.296553        -0.108991        -0.100906
 C         1.852951         1.339478        -0.895614
 C         3.184018         0.758096        -0.320419
 C         4.290155         0.596443        -1.424596
 O         3.371936        -0.584649        -1.901206
 C         2.675223        -0.642188        -0.518855
 O         3.067958         0.998227         1.084820
 C         1.723818         0.516924         1.302017
 H        -0.635426        -0.700354        -1.152088
 H         0.236973        -1.904123        -0.262444
 H        -0.557643        -0.708350         0.713987
 H         1.882747         1.248172        -2.032951
 H         1.412808         2.393408        -0.484545
 H         4.382612         1.319978        -2.183187
 H         5.312594         0.099806        -1.053906
 H         3.258036        -1.444566        -0.076997
 H         1.891554        -0.184192         2.166628
 H         0.993146         1.366882         1.494554
