19
Iteration:  2566
 C        -0.084812        -0.737017        -0.144511
 C         1.254718        -0.019683        -0.201198
 C         1.713974         1.224903        -0.959267
 C         3.105711         0.758849        -0.403604
 C         4.320483         0.561457        -1.352665
 O         3.507376        -0.613835        -1.791783
 C         2.720899        -0.675990        -0.531870
 O         3.096843         1.053949         1.083039
 C         1.768232         0.478956         1.213357
 H        -0.882367        -0.028702        -0.167025
 H        -0.315095        -1.495174        -0.944721
 H         0.086790        -1.323288         0.832222
 H         1.567872         1.140108        -2.002658
 H         1.478327         2.144734        -0.533548
 H         4.301812         1.248183        -2.223363
 H         5.359571         0.316727        -1.015247
 H         3.106017        -1.407601         0.195947
 H         1.820579        -0.479135         1.929947
 H         0.977035         1.164903         1.653570
