19
Iteration:  1401charge 0 multiplicity 1
 C        -0.022359        -0.772542        -0.248527
 C         1.335135        -0.119451        -0.104511
 C         1.724158         1.218675        -0.901351
 C         3.178750         0.892706        -0.348885
 C         4.350560         0.449143        -1.329674
 O         3.285949        -0.503764        -1.842195
 C         2.667526        -0.649666        -0.601193
 O         3.063983         1.155675         1.070984
 C         1.865418         0.382303         1.306539
 H        -0.012640        -1.024685        -1.366389
 H        -0.277360        -1.716605         0.255167
 H        -0.910548        -0.025211        -0.145201
 H         1.567328         1.017652        -1.959977
 H         1.307197         2.117804        -0.522012
 H         4.614748         1.097002        -2.141164
 H         5.202306        -0.069681        -0.837133
 H         3.179878        -1.494171        -0.032785
 H         2.152864        -0.594589         1.714239
 H         1.138524         0.879017         1.938836
