19
Iteration:  1553charge 0 multiplicity 1
 C         0.011443        -0.734367        -0.241983
 C         1.398221         0.002348        -0.128660
 C         1.701908         1.285824        -0.866086
 C         3.152492         0.822586        -0.310512
 C         4.200956         0.601460        -1.408962
 O         3.415938        -0.638528        -1.856827
 C         2.726984        -0.673921        -0.539359
 O         3.090990         0.951710         1.074504
 C         1.747330         0.435167         1.297954
 H         0.176487        -1.614058        -0.943472
 H        -0.239142        -1.075061         0.780334
 H        -0.720967        -0.028765        -0.738791
 H         1.551390         1.113986        -1.925765
 H         1.220106         2.185828        -0.587359
 H         4.177072         1.470035        -2.249088
 H         5.215423         0.207066        -1.371882
 H         3.192832        -1.425178         0.066329
 H         1.706019        -0.464748         1.950940
 H         1.095861         1.167401         1.741293
