19
Iteration:  3412
 C         0.055376        -0.715953        -0.352542
 C         1.393417        -0.001304        -0.135965
 C         1.798987         1.200600        -0.931046
 C         3.141758         0.816396        -0.347949
 C         4.239282         0.453787        -1.446455
 O         3.279095        -0.696565        -1.776022
 C         2.790646        -0.658731        -0.422640
 O         3.035943         1.236256         1.037755
 C         1.722949         0.410602         1.403122
 H        -0.828462        -0.296918         0.240579
 H        -0.306442        -0.696998        -1.419728
 H         0.095402        -1.787506        -0.059967
 H         1.862980         1.022783        -2.057569
 H         1.255924         2.084136        -0.830472
 H         4.463669         1.092360        -2.375306
 H         5.206954         0.061398        -1.104949
 H         3.208039        -1.518588         0.199868
 H         2.059344        -0.367308         2.053059
 H         0.983672         1.132490         1.805106
