19
Iteration:  1766charge 0 multiplicity 1
 C        -0.058845        -0.778391        -0.190273
 C         1.256789        -0.057155        -0.252299
 C         1.757792         1.261532        -0.911633
 C         3.123344         0.815318        -0.395660
 C         4.253742         0.561465        -1.355296
 O         3.438318        -0.642530        -1.841694
 C         2.698958        -0.634013        -0.473088
 O         3.129151         1.077816         1.060014
 C         1.806374         0.430512         1.275735
 H        -0.811466        -0.024422        -0.405180
 H        -0.174564        -1.748717        -0.812679
 H        -0.508289        -1.033649         0.849907
 H         1.843211         1.155536        -1.986265
 H         1.301619         2.153686        -0.622489
 H         4.663010         1.252654        -1.989195
 H         5.091951         0.069141        -0.747607
 H         3.294479        -1.362043         0.125196
 H         1.814519        -0.417699         1.941325
 H         1.105292         1.220032         1.609406
