19
Iteration:    28
 C        -0.055430        -0.725864        -0.233635
 C         1.324645        -0.012424        -0.084665
 C         1.785505         1.488709        -0.212145
 C         3.146670         0.800223        -0.234919
 C         4.040989         0.952148        -1.461774
 O         3.153159        -0.034044        -2.180321
 C         2.568423        -0.461152        -0.957090
 O         3.307136         0.481263         1.139427
 C         2.149615        -0.409427         1.245846
 H        -0.530457        -1.121821         0.709646
 H        -0.976554        -0.267234        -0.669871
 H         0.234530        -1.506833        -0.992800
 H         1.333055         1.873311        -1.170888
 H         1.474385         2.215983         0.594725
 H         4.216125         1.900465        -2.092528
 H         5.099260         0.611412        -1.265933
 H         2.916107        -1.526006        -0.849794
 H         2.477309        -1.457045         1.334440
 H         1.620313        -0.039709         2.141003
