19
Iteration:  2145
 C         0.013197        -0.803727        -0.209659
 C         1.380600        -0.074437        -0.192705
 C         1.745088         1.258677        -0.922611
 C         3.155112         0.851249        -0.319218
 C         4.187577         0.550527        -1.423310
 O         3.412119        -0.725392        -1.845520
 C         2.732497        -0.634753        -0.528609
 O         3.095212         1.062213         1.135808
 C         1.706915         0.543149         1.262567
 H        -0.794663        -0.284788         0.385788
 H        -0.339063        -0.590886        -1.241089
 H         0.376818        -1.840757        -0.025094
 H         1.722664         1.159023        -1.998809
 H         1.515371         2.184751        -0.582830
 H         4.296141         1.366402        -2.094790
 H         5.077869         0.066891        -0.921174
 H         2.981020        -1.536221         0.131516
 H         1.803086        -0.142637         2.123081
 H         0.948103         1.356373         1.413246
