19
Iteration:    57
 C        -0.073146        -0.703798        -0.200614
 C         1.371427        -0.146632        -0.106375
 C         1.675418         1.385224        -0.377839
 C         3.189084         0.740488        -0.254030
 C         4.112968         0.932017        -1.448920
 O         3.081366         0.137292        -2.235912
 C         2.677611        -0.516167        -0.848614
 O         3.388067         0.425512         1.140823
 C         2.023588        -0.273811         1.328365
 H        -0.357718        -1.633307         0.406308
 H        -0.725234         0.138604         0.108929
 H        -0.336205        -0.835649        -1.183158
 H         1.327976         1.703549        -1.376376
 H         1.320906         2.005684         0.476781
 H         4.244053         1.956219        -1.880459
 H         5.031501         0.413296        -1.282646
 H         3.299461        -1.353212        -0.762159
 H         2.198418        -1.296302         1.625724
 H         1.518856         0.309598         2.103577
