19
Iteration:   166
 C        -0.117746        -0.717110        -0.253737
 C         1.334810        -0.190915        -0.061850
 C         1.856865         1.326455        -0.409019
 C         3.218649         0.747154        -0.252868
 C         4.154831         0.867080        -1.508575
 O         3.094212         0.077870        -2.155069
 C         2.574140        -0.549370        -0.838633
 O         3.263506         0.635081         1.134958
 C         2.067806        -0.240646         1.389026
 H        -0.771812        -0.055208        -0.879510
 H        -0.065495        -1.647225        -0.840132
 H        -0.559183        -0.802538         0.651084
 H         1.558214         1.599771        -1.429001
 H         1.711335         2.192751         0.216731
 H         4.308467         1.883500        -1.877865
 H         5.067847         0.401433        -1.444656
 H         2.890837        -1.587974        -0.933448
 H         2.394476        -1.231714         1.803988
 H         1.421188         0.353761         2.108417
