19
Iteration:  4176
 C         0.034725        -0.844341        -0.333048
 C         1.348919         0.002856        -0.111565
 C         1.727312         1.231960        -0.941483
 C         3.129446         0.789676        -0.338390
 C         4.183300         0.488362        -1.330992
 O         3.370609        -0.609450        -1.865001
 C         2.700263        -0.639482        -0.471957
 O         3.118546         1.074565         1.071432
 C         1.781791         0.524560         1.277998
 H        -0.828191        -0.361841         0.171709
 H        -0.328085        -0.917356        -1.335774
 H         0.049578        -1.839279         0.211736
 H         1.920197         1.066518        -2.013273
 H         1.448556         2.237912        -0.626867
 H         4.462810         1.264734        -2.064301
 H         5.155042         0.090851        -0.823075
 H         3.125836        -1.437555         0.195004
 H         1.953297        -0.122539         2.211883
 H         1.098263         1.353878         1.591613
