19
Iteration:   611charge 0 multiplicity 1
 C        -0.057329        -0.679801        -0.321986
 C         1.302594        -0.092434        -0.026365
 C         1.719350         1.308923        -0.699428
 C         3.157415         0.732351        -0.325882
 C         4.206719         0.695309        -1.449902
 O         3.245530        -0.275203        -2.118746
 C         2.690086        -0.648626        -0.660813
 O         3.174934         0.908007         1.166192
 C         1.958824         0.055067         1.451636
 H        -0.656440        -0.272864        -1.111899
 H         0.069684        -1.721554        -0.496828
 H        -0.546951        -0.753811         0.646182
 H         1.541070         1.417715        -1.812861
 H         1.312762         2.231861        -0.093361
 H         4.225741         1.710001        -1.874368
 H         5.216894         0.169758        -1.332248
 H         3.264324        -1.560986        -0.407083
 H         2.466468        -0.944362         1.732258
 H         1.397346         0.576059         2.210328
