19
Iteration:  3407
 C         0.054688        -0.735829        -0.365152
 C         1.355761         0.000597        -0.114120
 C         1.820287         1.202709        -0.961709
 C         3.134409         0.813354        -0.391685
 C         4.177297         0.441349        -1.451938
 O         3.328479        -0.703887        -1.783086
 C         2.790546        -0.639077        -0.428129
 O         3.058939         1.216857         1.077987
 C         1.714568         0.414682         1.379084
 H        -0.695398        -0.196871         0.210327
 H        -0.281558        -0.641142        -1.403303
 H         0.197563        -1.745945         0.080762
 H         1.669083         0.997504        -1.990306
 H         1.372348         2.248550        -0.684839
 H         4.377387         1.042095        -2.303585
 H         5.144536         0.125279        -1.017203
 H         3.200937        -1.331770         0.277220
 H         2.015917        -0.356087         2.154359
 H         0.981718         1.099101         1.794401
