19
Iteration:   936
 C        -0.047267        -0.768221        -0.332860
 C         1.293280        -0.059746        -0.118302
 C         1.739948         1.360022        -0.715958
 C         3.082205         0.885694        -0.397876
 C         4.203179         0.486266        -1.347644
 O         3.370052        -0.546457        -1.887809
 C         2.660221        -0.603074        -0.620631
 O         3.119578         1.046556         1.044955
 C         1.931249         0.188173         1.331940
 H        -0.772686        -0.614982         0.434282
 H        -0.489834        -0.427759        -1.184732
 H         0.150097        -1.802409        -0.407512
 H         1.628145         1.474618        -1.780337
 H         1.579806         2.305612        -0.234488
 H         4.527644         1.252415        -2.210132
 H         4.998641         0.367620        -0.669376
 H         3.208226        -1.394716         0.012962
 H         2.461788        -0.576963         1.943283
 H         1.269659         0.964875         1.823808
