19
Iteration:    69
 C        -0.043950        -0.629565        -0.181891
 C         1.393596        -0.183696        -0.070908
 C         1.772744         1.266919        -0.398587
 C         3.158200         0.720024        -0.255193
 C         4.067528         0.962535        -1.373679
 O         3.027572         0.169676        -2.134638
 C         2.741450        -0.582477        -0.964579
 O         3.305656         0.444131         1.072971
 C         2.037447        -0.210963         1.308805
 H        -0.065421        -1.745620         0.120317
 H        -0.774735        -0.100306         0.493972
 H        -0.320307        -0.595247        -1.175798
 H         1.513306         1.643260        -1.426252
 H         1.560474         2.124952         0.324363
 H         4.291966         2.020830        -1.784223
 H         4.991685         0.421137        -1.412070
 H         3.134122        -1.537888        -0.820109
 H         2.186356        -1.138857         1.778013
 H         1.378433         0.394884         1.941514
