19
Iteration:  2721charge 0 multiplicity 1
 C        -0.041449        -0.661543        -0.219551
 C         1.351397        -0.110520        -0.090325
 C         1.755776         1.096148        -0.989628
 C         3.154528         0.821656        -0.374870
 C         4.304799         0.550112        -1.305299
 O         3.407235        -0.545875        -1.848478
 C         2.723670        -0.757516        -0.456555
 O         3.008542         1.119393         1.016250
 C         1.783561         0.448812         1.265726
 H        -0.766536        -0.126760         0.456571
 H        -0.333192        -0.516172        -1.266441
 H        -0.127937        -1.692450         0.198649
 H         1.568977         1.044493        -2.046736
 H         1.408990         2.047500        -0.751314
 H         4.433884         1.342840        -2.128892
 H         5.276707         0.401134        -0.904719
 H         3.150066        -1.612813         0.120203
 H         2.096371        -0.444098         1.861614
 H         1.007040         1.154257         1.652769
