19
Iteration:  3561
 C         0.016805        -0.765172        -0.359572
 C         1.363689        -0.063945        -0.182361
 C         1.670820         1.232235        -0.875681
 C         3.162960         0.850833        -0.357508
 C         4.167354         0.482754        -1.373519
 O         3.380557        -0.675303        -1.772576
 C         2.738419        -0.659493        -0.407908
 O         3.158251         1.158609         0.980047
 C         1.758229         0.470273         1.328280
 H        -0.784299        -0.109319        -0.157022
 H        -0.000144        -1.160027        -1.393932
 H        -0.131146        -1.668945         0.195416
 H         1.655968         1.250991        -2.036702
 H         1.226704         2.201911        -0.497337
 H         4.360760         1.137058        -2.221324
 H         5.086563         0.118197        -0.754937
 H         3.006239        -1.505434         0.188167
 H         1.967758        -0.388922         2.038881
 H         1.208207         1.243824         1.888701
