19
Iteration:  2249
 C        -0.087120        -0.693523        -0.173744
 C         1.356912        -0.034427        -0.210960
 C         1.816304         1.167385        -0.978669
 C         3.082562         0.804182        -0.369295
 C         4.165505         0.595410        -1.368581
 O         3.517812        -0.655640        -1.822512
 C         2.718096        -0.691116        -0.555143
 O         3.083511         1.027764         1.101305
 C         1.762857         0.464189         1.270797
 H        -0.817407        -0.019508         0.148567
 H        -0.271960        -1.466989        -0.880313
 H        -0.024081        -1.178665         0.796914
 H         1.712240         1.151197        -2.108024
 H         1.284152         2.150870        -0.584144
 H         4.203458         1.405278        -2.176837
 H         5.134217         0.539488        -0.956731
 H         3.190566        -1.449977         0.090784
 H         1.814672        -0.262732         2.013123
 H         1.131062         1.245242         1.649172
