19
Iteration:  3540charge 0 multiplicity 1
 C        -0.023263        -0.696522        -0.364709
 C         1.371355        -0.151651        -0.050631
 C         1.711881         1.095685        -0.936830
 C         3.166394         0.802501        -0.355711
 C         4.261833         0.472102        -1.317730
 O         3.258819        -0.586225        -1.831858
 C         2.789805        -0.654056        -0.500536
 O         3.050416         1.244417         1.061526
 C         1.870298         0.450952         1.308176
 H        -0.735886         0.116000        -0.531719
 H         0.008343        -1.155461        -1.403003
 H        -0.535978        -1.424809         0.274749
 H         1.630957         0.730309        -2.024734
 H         1.389725         2.141854        -0.691986
 H         4.447460         1.148915        -2.093673
 H         5.148041        -0.095577        -0.854093
 H         3.353575        -1.312818         0.144701
 H         2.133106        -0.255055         2.160017
 H         1.183696         1.172461         1.794596
