19
Iteration:  4915charge 0 multiplicity 1
 C        -0.045696        -0.762569        -0.305810
 C         1.271956        -0.000089        -0.090094
 C         1.698132         1.229085        -0.932212
 C         3.084117         0.828189        -0.399459
 C         4.211141         0.483125        -1.416291
 O         3.475795        -0.642385        -1.786130
 C         2.769567        -0.675642        -0.415400
 O         3.104904         1.101035         1.013039
 C         1.823355         0.428096         1.306912
 H        -0.783195        -0.033181        -0.209391
 H        -0.098934        -1.074504        -1.352354
 H        -0.196391        -1.521485         0.478576
 H         1.715531         1.263409        -2.025546
 H         1.348960         2.304909        -0.599140
 H         4.349372         1.252904        -2.253280
 H         5.156338         0.260174        -0.970015
 H         3.170392        -1.423081         0.331047
 H         1.950253        -0.382201         1.997007
 H         1.102293         1.069779         1.831468
