19
Iteration:  2065charge 0 multiplicity 1
 C        -0.050870        -0.720433        -0.242191
 C         1.334795        -0.068959        -0.191991
 C         1.727210         1.272283        -0.882306
 C         3.103506         0.861265        -0.383432
 C         4.267815         0.562744        -1.328147
 O         3.423804        -0.711018        -1.771385
 C         2.717530        -0.684946        -0.496601
 O         3.059741         1.143736         0.981805
 C         1.821494         0.353375         1.224960
 H        -0.759508         0.012334         0.285872
 H        -0.218025        -1.151821        -1.218678
 H        -0.032535        -1.553637         0.447729
 H         1.521241         1.213852        -1.928524
 H         1.393413         2.136247        -0.541457
 H         4.502946         1.266821        -2.074540
 H         5.268996         0.498262        -0.859969
 H         3.142912        -1.290409         0.304288
 H         2.041985        -0.539043         1.881338
 H         1.097581         0.997929         1.758313
