19
Iteration:  1624
 C        -0.052909        -0.731331        -0.214154
 C         1.373936        -0.120674        -0.133134
 C         1.741428         1.269109        -0.951033
 C         3.121123         0.897139        -0.374179
 C         4.285216         0.435555        -1.308564
 O         3.333439        -0.522378        -1.915769
 C         2.739672        -0.717596        -0.555076
 O         3.038001         1.153585         1.116226
 C         1.864178         0.336725         1.276929
 H        -0.241077        -1.484137        -0.961637
 H        -0.297662        -1.074768         0.842770
 H        -0.708764         0.103929        -0.508195
 H         1.726765         1.143087        -2.054029
 H         1.118542         2.170914        -0.673125
 H         4.538644         1.135619        -2.022180
 H         5.265579         0.132689        -0.712276
 H         3.134325        -1.646124        -0.029516
 H         2.254837        -0.451255         1.886244
 H         1.145992         0.869408         1.961912
