19
Iteration:   901
 C        -0.060182        -0.654912        -0.271313
 C         1.357802        -0.155260        -0.134804
 C         1.742423         1.180196        -0.872738
 C         3.224824         0.735599        -0.299715
 C         4.247647         0.671242        -1.436760
 O         3.266847        -0.400484        -1.903425
 C         2.731192        -0.679841        -0.566261
 O         3.108822         0.968673         1.159644
 C         1.856897         0.314103         1.298266
 H        -0.756923         0.141415        -0.033927
 H        -0.180146        -1.169031        -1.220460
 H        -0.266574        -1.401746         0.436360
 H         1.768059         1.126454        -1.938982
 H         1.420315         2.090133        -0.449460
 H         4.096259         1.508814        -2.203365
 H         5.303639         0.352485        -1.252883
 H         3.163709        -1.617169        -0.130561
 H         1.920749        -0.518277         2.042365
 H         1.067849         0.883714         1.883094
