19
Iteration:  3598charge 0 multiplicity 1
 C         0.027681        -0.829160        -0.158937
 C         1.281485         0.026725        -0.211473
 C         1.874449         1.302725        -0.967936
 C         3.147929         0.815747        -0.337276
 C         4.183494         0.503945        -1.443392
 O         3.503784        -0.699625        -1.819439
 C         2.720196        -0.624934        -0.460484
 O         3.032998         1.081391         1.066972
 C         1.625748         0.471514         1.291540
 H        -0.702271        -0.185536         0.613231
 H        -0.531734        -0.821940        -1.140727
 H         0.226817        -1.890684         0.275705
 H         1.830224         1.117199        -2.077532
 H         1.588468         2.297125        -0.661124
 H         4.361694         1.175120        -2.290224
 H         5.263689         0.407650        -1.088064
 H         2.953639        -1.642710        -0.003434
 H         1.755606        -0.474924         1.838901
 H         1.088727         1.330873         1.858519
