19
Iteration:  3032charge 0 multiplicity 1
 C        -0.100756        -0.701119        -0.180340
 C         1.325575        -0.085632        -0.080620
 C         1.818736         1.103346        -0.942606
 C         3.190222         0.714255        -0.341736
 C         4.272339         0.625232        -1.387885
 O         3.398175        -0.553957        -1.835394
 C         2.884100        -0.745256        -0.499313
 O         2.983765         1.086771         1.009644
 C         1.722826         0.514172         1.281979
 H        -0.801375         0.074078         0.332898
 H        -0.494717        -0.661512        -1.206369
 H        -0.132885        -1.676615         0.354311
 H         1.673513         1.010452        -1.983684
 H         1.454297         2.105257        -0.838256
 H         4.238114         1.428621        -2.205992
 H         5.324106         0.180722        -1.153479
 H         3.359098        -1.597325        -0.003461
 H         1.694285        -0.309830         1.976219
 H         0.974711         1.239182         1.578611
