19
Iteration:  2280charge 0 multiplicity 1
 C        -0.054687        -0.779204        -0.196111
 C         1.321304        -0.007111        -0.167145
 C         1.747065         1.241915        -0.958581
 C         3.213275         0.826770        -0.363835
 C         4.261764         0.444907        -1.346409
 O         3.431225        -0.636353        -1.865945
 C         2.713588        -0.641989        -0.512314
 O         3.065626         1.176508         1.079329
 C         1.724727         0.420749         1.278000
 H        -0.892233        -0.336623         0.350438
 H        -0.519617        -1.120536        -1.185374
 H         0.182587        -1.795243         0.350743
 H         1.592492         1.093332        -2.044444
 H         1.301094         2.147773        -0.437298
 H         4.435064         1.294877        -2.137818
 H         5.304459         0.105175        -1.041041
 H         3.259757        -1.454529         0.069185
 H         1.955064        -0.382540         1.970759
 H         1.062923         1.159146         1.715212
