19
Iteration:  2531charge 0 multiplicity 1
 C        -0.038502        -0.695591        -0.193278
 C         1.336884        -0.064467        -0.160040
 C         1.740654         1.232627        -0.986302
 C         3.115470         0.780032        -0.407726
 C         4.317033         0.441751        -1.266122
 O         3.397217        -0.610400        -1.842015
 C         2.723094        -0.673605        -0.514772
 O         2.984235         1.226813         1.023694
 C         1.834070         0.379336         1.259184
 H        -0.783989        -0.268040         0.459804
 H        -0.360520        -0.947876        -1.252153
 H        -0.010691        -1.720890         0.350213
 H         1.495666         1.078023        -2.084277
 H         1.535220         2.285854        -0.679004
 H         4.615000         1.173980        -1.972164
 H         5.159194         0.131751        -0.530014
 H         3.313337        -1.311346         0.156018
 H         2.184984        -0.623264         1.760078
 H         1.153665         0.964739         1.936828
