19
Iteration:  1740charge 0 multiplicity 1
 C         0.007449        -0.772650        -0.236847
 C         1.290110         0.014284        -0.113491
 C         1.750245         1.292314        -0.954266
 C         3.160979         0.807838        -0.358330
 C         4.248953         0.442939        -1.335163
 O         3.405909        -0.618090        -1.793147
 C         2.665418        -0.683259        -0.538668
 O         3.046271         1.203161         1.039597
 C         1.856679         0.362780         1.289846
 H        -0.734281        -0.145446        -0.803035
 H         0.271292        -1.661304        -0.770726
 H        -0.714578        -1.052510         0.549312
 H         1.526655         1.108465        -1.999838
 H         1.312440         2.247988        -0.607810
 H         4.602698         1.286141        -2.096164
 H         5.115565        -0.018459        -1.026162
 H         3.118358        -1.575641        -0.132414
 H         2.140979        -0.624504         1.826014
 H         1.122415         0.931155         1.914249
