19
Iteration:  3971
 C        -0.059591        -0.734069        -0.274450
 C         1.300942        -0.005283        -0.085653
 C         1.757415         1.289639        -0.990414
 C         3.093244         0.819694        -0.398734
 C         4.285961         0.468873        -1.358048
 O         3.453632        -0.664944        -1.804591
 C         2.787162        -0.647603        -0.520505
 O         2.994179         1.187116         1.032311
 C         1.803174         0.320257         1.364510
 H        -0.757141        -0.228597         0.448800
 H        -0.425340        -0.563786        -1.264778
 H         0.064528        -1.783770         0.077746
 H         1.575471         0.864787        -2.029744
 H         1.375102         2.297506        -0.686790
 H         4.489695         1.060603        -2.234318
 H         5.226671         0.307121        -0.864211
 H         3.176515        -1.502104         0.050670
 H         2.210816        -0.439344         1.956654
 H         1.031911         0.918664         1.891824
