19
Iteration:  1342charge 0 multiplicity 1
 C        -0.092600        -0.707009        -0.191590
 C         1.324396        -0.080590        -0.194397
 C         1.756214         1.195576        -0.866212
 C         3.203917         0.794427        -0.309826
 C         4.227998         0.614643        -1.462686
 O         3.419376        -0.535039        -1.872904
 C         2.795186        -0.648308        -0.476210
 O         3.147987         0.942984         1.090840
 C         1.659203         0.411145         1.270277
 H        -0.195058        -1.529701        -0.940100
 H        -0.347180        -1.197752         0.862220
 H        -0.922554         0.070976        -0.383501
 H         1.748348         0.982428        -1.921608
 H         1.269100         2.165629        -0.608396
 H         4.166209         1.471729        -2.272415
 H         5.313285         0.496713        -1.405226
 H         3.356044        -1.403260         0.064055
 H         1.651279        -0.398396         2.013066
 H         1.151091         1.271115         1.704018
