19
Iteration:  3911charge 0 multiplicity 1
 C         0.016084        -0.754314        -0.245122
 C         1.268234        -0.031586        -0.094767
 C         1.692983         1.234440        -0.896905
 C         3.112214         0.755163        -0.348316
 C         4.278776         0.547042        -1.417506
 O         3.519704        -0.626755        -1.857521
 C         2.730282        -0.633147        -0.525172
 O         3.086299         1.019620         1.086968
 C         1.752191         0.525999         1.270600
 H        -0.816428        -0.030848        -0.112974
 H        -0.241041        -1.362809        -1.184737
 H        -0.235563        -1.526657         0.535983
 H         1.551220         0.947912        -1.942359
 H         1.195655         2.174319        -0.836861
 H         4.372922         1.258189        -2.307997
 H         5.224818         0.328797        -0.810218
 H         3.019444        -1.439495         0.186771
 H         1.752377        -0.222217         2.155609
 H         1.034418         1.282488         1.562478
