19
Iteration:   356charge 0 multiplicity 1
 C         0.035922        -0.654795        -0.287810
 C         1.401903        -0.037893        -0.074567
 C         1.763263         1.328726        -0.536006
 C         3.175156         0.806444        -0.223152
 C         4.097212         0.685330        -1.516770
 O         3.108712        -0.150871        -2.139582
 C         2.706636        -0.567155        -0.776647
 O         3.151845         0.760774         1.232662
 C         2.029271        -0.128231         1.353307
 H        -0.378805        -0.408652        -1.248655
 H         0.292440        -1.706312        -0.137641
 H        -0.674187        -0.324893         0.531491
 H         1.452579         1.531651        -1.593265
 H         1.328024         2.236577         0.110157
 H         4.275006         1.616441        -2.079486
 H         4.959898         0.175054        -1.288171
 H         3.137394        -1.570903        -0.644290
 H         2.446740        -1.195178         1.324453
 H         1.229042         0.127065         2.105576
