19
Iteration:  3380charge 0 multiplicity 1
 C        -0.040538        -0.802799        -0.269285
 C         1.270040         0.020058        -0.191647
 C         1.698673         1.315128        -0.869653
 C         3.133567         0.801952        -0.355979
 C         4.254824         0.535378        -1.430854
 O         3.470168        -0.750785        -1.711923
 C         2.737780        -0.671756        -0.513845
 O         3.148117         1.054999         0.999978
 C         1.745282         0.525718         1.301463
 H        -0.863944        -0.079719        -0.121904
 H        -0.091747        -1.131727        -1.305707
 H         0.062504        -1.538100         0.500274
 H         1.786200         1.206887        -2.009577
 H         1.086118         2.074357        -0.459488
 H         4.198621         1.214650        -2.421258
 H         5.303897         0.317163        -1.111191
 H         2.906002        -1.460136         0.286965
 H         1.830290        -0.106638         2.194579
 H         1.054280         1.365860         1.627930
