19
Iteration:    51
 C        -0.057164        -0.725116        -0.227040
 C         1.323335        -0.151641        -0.121761
 C         1.655929         1.383714        -0.337433
 C         3.167071         0.776234        -0.230497
 C         4.103099         0.898689        -1.497542
 O         3.139631         0.106653        -2.270517
 C         2.611856        -0.431753        -0.843688
 O         3.420943         0.421862         1.200801
 C         2.050830        -0.277692         1.340009
 H        -0.403973        -1.402253         0.563353
 H        -0.723724         0.118333         0.024352
 H        -0.381390        -1.056795        -1.296383
 H         1.346604         1.799563        -1.316266
 H         1.242201         2.062015         0.432214
 H         4.296617         1.892067        -1.968913
 H         5.160408         0.460189        -1.453739
 H         3.207904        -1.395592        -0.711161
 H         2.239136        -1.375960         1.476747
 H         1.545214         0.194465         2.201846
