19
Iteration:  3008charge 0 multiplicity 1
 C        -0.097497        -0.641234        -0.212525
 C         1.336686        -0.188125        -0.070809
 C         1.708334         1.051862        -0.895862
 C         3.118370         0.764406        -0.345321
 C         4.233053         0.567038        -1.346813
 O         3.549095        -0.557517        -1.940166
 C         2.704603        -0.713532        -0.516372
 O         3.110897         1.147684         1.031782
 C         1.761378         0.487412         1.335467
 H        -0.728822         0.312622        -0.132311
 H        -0.257955        -0.919111        -1.272942
 H        -0.364168        -1.378661         0.547759
 H         1.613678         0.886320        -1.956372
 H         1.102454         1.956625        -0.833827
 H         4.291538         1.431486        -2.144446
 H         5.213366         0.283186        -0.896418
 H         3.317222        -1.415551         0.042271
 H         1.902237        -0.256198         2.082986
 H         0.934123         1.139836         1.554589
