19
Iteration:  1126charge 0 multiplicity 1
 C        -0.040313        -0.757739        -0.222452
 C         1.310548        -0.056890        -0.195900
 C         1.775990         1.171601        -0.899634
 C         3.182190         0.774372        -0.269800
 C         4.183850         0.548267        -1.393111
 O         3.344250        -0.503329        -1.988467
 C         2.764271        -0.645943        -0.535997
 O         3.122504         0.999442         1.140458
 C         1.792553         0.473539         1.361811
 H         0.038788        -1.706947        -0.693036
 H        -0.430294        -1.000845         0.687351
 H        -0.809338        -0.225840        -0.751526
 H         1.845352         1.150569        -2.010679
 H         1.172510         2.089706        -0.563193
 H         4.343754         1.411877        -2.164151
 H         5.205437         0.308277        -0.951694
 H         3.335420        -1.464736        -0.032351
 H         1.718038        -0.472899         1.984154
 H         1.238576         1.306836         1.753602
