19
Iteration:   708charge 0 multiplicity 1
 C        -0.033995        -0.662585        -0.176643
 C         1.401838        -0.093665        -0.189939
 C         1.660693         1.222677        -0.736438
 C         3.177296         0.808439        -0.315795
 C         4.311679         0.567470        -1.309076
 O         3.213649        -0.288133        -1.963321
 C         2.660578        -0.607688        -0.710065
 O         3.107504         0.995212         1.116300
 C         1.946559         0.107077         1.268611
 H        -0.457906        -0.871680         0.838706
 H        -0.706541         0.025366        -0.678952
 H         0.032488        -1.761966        -0.751181
 H         1.541283         1.281299        -1.840629
 H         1.164263         2.054508        -0.136563
 H         4.612098         1.395378        -2.068856
 H         5.235549        -0.092746        -1.078959
 H         3.079448        -1.557207        -0.353447
 H         2.343179        -0.888716         1.459167
 H         1.271895         0.434911         2.023464
