19
Iteration:  2027
 C         0.056771        -0.745634        -0.276693
 C         1.364757        -0.062256        -0.100381
 C         1.772548         1.141419        -0.922599
 C         3.186591         0.738214        -0.357141
 C         4.292233         0.610297        -1.387963
 O         3.324908        -0.568557        -1.870644
 C         2.671330        -0.723059        -0.456975
 O         3.082074         1.055207         1.123857
 C         1.721633         0.570854         1.281330
 H        -0.745847        -0.151328        -0.593523
 H         0.123486        -1.530380        -1.094481
 H        -0.180927        -1.310337         0.670041
 H         1.739657         0.847437        -2.006962
 H         1.277829         2.240081        -0.665488
 H         4.103153         1.420570        -2.278363
 H         5.254889         0.132162        -1.265187
 H         3.140689        -1.582973         0.062981
 H         1.779924        -0.146349         2.113504
 H         0.961002         1.357687         1.487819
