19
Iteration:  1363
 C        -0.036398        -0.791684        -0.182333
 C         1.299870        -0.010948        -0.138469
 C         1.774633         1.293530        -0.913252
 C         3.161601         0.773459        -0.343224
 C         4.221603         0.587209        -1.426392
 O         3.452293        -0.598936        -1.872274
 C         2.671339        -0.636537        -0.642143
 O         3.082496         1.007121         1.144675
 C         1.789263         0.411610         1.310193
 H         0.101355        -1.570987        -0.935769
 H        -0.293951        -1.297053         0.823047
 H        -0.855305        -0.086174        -0.397199
 H         1.706426         1.310849        -2.007426
 H         1.308600         2.206588        -0.368069
 H         4.460121         1.364868        -2.232576
 H         5.231639         0.287582        -1.090118
 H         2.974915        -1.521559        -0.073134
 H         2.012781        -0.393441         2.032478
 H         0.970538         1.067872         1.747227
