19
Iteration:  4219charge 0 multiplicity 1
 C        -0.093231        -0.703550        -0.249754
 C         1.265691        -0.032974        -0.143909
 C         1.747884         1.324477        -0.881342
 C         3.128773         0.858787        -0.394343
 C         4.263555         0.466753        -1.423068
 O         3.527897        -0.741974        -1.841350
 C         2.734151        -0.610209        -0.501173
 O         2.996994         1.186709         1.086190
 C         1.835931         0.304620         1.319079
 H        -1.011177        -0.149974        -0.381467
 H         0.070309        -1.190791        -1.182009
 H        -0.100268        -1.431326         0.627325
 H         1.570304         1.118743        -1.993511
 H         1.226434         2.273272        -0.646875
 H         4.363514         1.144961        -2.309704
 H         5.259244         0.319661        -0.944732
 H         3.280880        -1.394774         0.159732
 H         1.996141        -0.597809         2.006198
 H         1.108762         0.919660         1.872808
