19
Iteration:  3865
 C         0.026365        -0.795912        -0.293693
 C         1.377880        -0.057530        -0.188059
 C         1.777178         1.253136        -0.901861
 C         3.188461         0.865934        -0.289831
 C         4.232927         0.393951        -1.377253
 O         3.315848        -0.571373        -1.795848
 C         2.744976        -0.732692        -0.499427
 O         3.013918         1.278128         1.027323
 C         1.792488         0.387499         1.299844
 H        -0.879250        -0.155330        -0.360302
 H        -0.011969        -1.448712        -1.194686
 H        -0.123598        -1.481654         0.528853
 H         1.603573         1.352830        -2.040705
 H         1.443770         2.130423        -0.437737
 H         4.369387         1.243002        -2.205230
 H         5.097872        -0.167887        -0.986039
 H         3.162154        -1.692531        -0.024054
 H         2.168043        -0.389415         2.053344
 H         0.962829         0.959342         1.797728
