19
Iteration:  4156
 C         0.000738        -0.727202        -0.218308
 C         1.376312        -0.084092        -0.104871
 C         1.834320         1.109385        -0.976736
 C         3.230519         0.775259        -0.260603
 C         4.358108         0.506795        -1.455069
 O         3.287252        -0.527693        -1.901704
 C         2.748202        -0.676720        -0.513707
 O         3.016153         1.149896         1.131375
 C         1.626102         0.505228         1.329550
 H        -0.945966        -0.473897         0.337422
 H        -0.291909        -0.732694        -1.295066
 H         0.098294        -1.837262         0.047519
 H         1.800081         0.831726        -2.085314
 H         1.404874         2.016011        -0.627260
 H         4.473155         1.018423        -2.387305
 H         5.457938         0.084882        -1.183197
 H         3.158426        -1.541816        -0.032708
 H         1.695078        -0.216688         2.261323
 H         0.955824         1.420220         1.522207
