19
Iteration:   475charge 0 multiplicity 1
 C         0.005587        -0.683820        -0.342481
 C         1.385246        -0.113690        -0.050898
 C         1.710443         1.273647        -0.609002
 C         3.151153         0.722523        -0.312260
 C         4.135362         0.635225        -1.437368
 O         3.114435        -0.078267        -2.094699
 C         2.694083        -0.612377        -0.718545
 O         3.156444         0.838112         1.153044
 C         2.069435         0.016977         1.420852
 H        -0.374912        -1.315256         0.503382
 H        -0.785635         0.037508        -0.569040
 H         0.129211        -1.419619        -1.177876
 H         1.662831         1.350009        -1.686251
 H         1.387967         2.144146        -0.028103
 H         4.505656         1.630591        -1.998560
 H         4.977654        -0.044311        -1.104656
 H         3.187131        -1.529440        -0.404311
 H         2.525557        -0.940026         1.780771
 H         1.380603         0.498205         2.173886
