19
Iteration:   981
 C        -0.006346        -0.787027        -0.191943
 C         1.370407        -0.077620        -0.149067
 C         1.888018         1.255591        -0.886484
 C         3.134238         0.808569        -0.344997
 C         4.192788         0.619534        -1.395798
 O         3.312466        -0.463048        -1.938341
 C         2.692000        -0.609982        -0.599217
 O         3.085143         0.902600         1.150471
 C         1.774757         0.390764         1.328327
 H        -0.363869        -1.145919         0.745604
 H        -0.717198        -0.117489        -0.447262
 H        -0.047647        -1.650357        -0.856467
 H         1.869942         1.071347        -1.959541
 H         1.507889         2.230563        -0.580777
 H         4.415512         1.512516        -2.165986
 H         5.019935         0.059196        -1.061997
 H         3.122842        -1.552497        -0.126717
 H         1.845798        -0.490563         2.034853
 H         1.187719         1.273309         1.724256
