19
Iteration:  2328
 C         0.040430        -0.766616        -0.375674
 C         1.315629        -0.033874        -0.112603
 C         1.737515         1.167399        -0.869781
 C         3.098858         0.744811        -0.319146
 C         4.212818         0.501973        -1.426494
 O         3.328191        -0.654245        -1.807372
 C         2.750769        -0.647472        -0.441302
 O         3.110978         1.225830         1.042919
 C         1.792937         0.471335         1.303559
 H        -0.877423        -0.425507         0.214629
 H        -0.331093        -0.683808        -1.412092
 H         0.228585        -1.790994        -0.174534
 H         1.733700         1.027510        -1.997753
 H         1.472570         2.199422        -0.380243
 H         4.577563         1.223001        -2.207391
 H         5.093797         0.100485        -0.946769
 H         3.159242        -1.443482         0.171944
 H         2.071857        -0.384822         1.854513
 H         1.207190         1.206178         1.838935
