19
Iteration:   275charge 0 multiplicity 1
 C        -0.079139        -0.624534        -0.193351
 C         1.341381        -0.125306        -0.088153
 C         1.803236         1.276217        -0.534206
 C         3.175482         0.748521        -0.253017
 C         4.115793         0.837284        -1.498610
 O         3.076450        -0.031200        -2.120792
 C         2.794381        -0.597515        -0.792844
 O         3.242849         0.703942         1.179904
 C         1.996109        -0.190233         1.300919
 H        -0.157895        -1.706406         0.070068
 H        -0.802519        -0.154382         0.490076
 H        -0.493534        -0.393142        -1.137347
 H         1.623243         1.382162        -1.582037
 H         1.552258         2.102008         0.026202
 H         4.399334         1.767731        -2.014849
 H         5.036879         0.260868        -1.252507
 H         3.370815        -1.496942        -0.585757
 H         2.128782        -1.241774         1.602624
 H         1.218555         0.250110         1.974511
