19
Iteration:   369
 C         0.031032        -0.649547        -0.275839
 C         1.392506        -0.165427        -0.114176
 C         1.818697         1.297032        -0.535820
 C         3.216263         0.741318        -0.251290
 C         4.123457         0.742799        -1.438435
 O         3.074231        -0.103702        -2.115663
 C         2.632755        -0.613144        -0.800367
 O         3.151190         0.907822         1.195923
 C         2.024842        -0.191367         1.320543
 H        -0.474408        -0.077060        -1.050272
 H        -0.197189        -1.683108        -0.577330
 H        -0.632356        -0.485356         0.690161
 H         1.691284         1.433703        -1.665089
 H         1.523308         2.243029         0.172628
 H         4.324790         1.609068        -1.988998
 H         5.029016         0.165901        -1.362687
 H         3.043612        -1.618846        -0.482489
 H         2.491634        -1.124704         1.765455
 H         1.466430         0.161768         2.184335
