19
Iteration:  3026charge 0 multiplicity 1
 C        -0.101717        -0.658147        -0.186813
 C         1.328863        -0.102052        -0.073707
 C         1.774542         1.064015        -0.970181
 C         3.179956         0.719718        -0.376203
 C         4.268044         0.657577        -1.399407
 O         3.428498        -0.544422        -1.886734
 C         2.897274        -0.747348        -0.433268
 O         2.986560         1.086358         1.017249
 C         1.718167         0.483246         1.313397
 H        -0.868744        -0.084291         0.264534
 H        -0.425160        -0.734435        -1.233702
 H        -0.399396        -1.531245         0.435732
 H         1.689412         0.901703        -2.102908
 H         1.601070         2.165596        -0.579017
 H         4.440095         1.364386        -2.158299
 H         5.170643         0.225775        -1.037255
 H         3.228431        -1.735747        -0.035752
 H         1.783434        -0.261573         2.195869
 H         1.114614         1.433266         1.505788
