19
Iteration:  2904
 C        -0.032374        -0.747372        -0.314840
 C         1.283664        -0.143274        -0.124461
 C         1.712712         1.114967        -0.938653
 C         3.165150         0.793912        -0.350710
 C         4.305494         0.577972        -1.431656
 O         3.400080        -0.600830        -1.853940
 C         2.722962        -0.726080        -0.483086
 O         3.086819         1.195384         1.118210
 C         1.818382         0.515954         1.361387
 H        -0.700598        -0.379935         0.420736
 H        -0.381215        -0.602172        -1.352269
 H        -0.153684        -1.832073         0.005573
 H         1.620096         0.945419        -2.082140
 H         1.328844         2.139869        -0.516543
 H         4.432792         1.233323        -2.223483
 H         5.269838         0.341730        -0.988857
 H         3.145303        -1.620228         0.049008
 H         1.653259        -0.275792         2.186251
 H         1.041597         1.326638         1.490534
