19
Iteration:  1466
 C        -0.092742        -0.774383        -0.219171
 C         1.282527        -0.034267        -0.189571
 C         1.749155         1.234183        -0.950634
 C         3.109085         0.794805        -0.347613
 C         4.237137         0.619337        -1.425612
 O         3.494985        -0.668109        -1.884061
 C         2.703640        -0.667680        -0.543602
 O         3.165789         1.049875         1.198826
 C         1.763696         0.455821         1.311304
 H        -0.738927        -0.506565        -1.132567
 H         0.098374        -1.867854        -0.161010
 H        -0.882882        -0.517579         0.597415
 H         1.708046         1.239237        -2.027784
 H         1.469073         2.139610        -0.596267
 H         4.096612         1.379152        -2.254038
 H         5.270268         0.424414        -1.128059
 H         3.080981        -1.350832         0.224993
 H         1.847431        -0.414428         1.917938
 H         1.210411         1.248735         1.734253
