19
Iteration:  4240charge 0 multiplicity 1
 C        -0.028351        -0.634352        -0.230919
 C         1.348934        -0.119685        -0.102975
 C         1.770194         1.086059        -0.998876
 C         3.183731         0.763058        -0.293812
 C         4.258336         0.607789        -1.414011
 O         3.407792        -0.582743        -1.837520
 C         2.788813        -0.668288        -0.470497
 O         2.965028         1.145073         1.062672
 C         1.757147         0.382886         1.288225
 H        -0.526316         0.319000        -0.206721
 H        -0.330031        -1.157516        -1.116713
 H        -0.299167        -1.119150         0.743385
 H         1.691942         0.956235        -2.115263
 H         1.534329         2.149179        -0.769894
 H         4.388359         1.154870        -2.355553
 H         5.211133         0.272096        -1.085102
 H         3.235591        -1.579154         0.097315
 H         1.941223        -0.497454         1.909398
 H         0.994835         0.916134         1.803993
