19
Iteration:  3227charge 0 multiplicity 1
 C        -0.019757        -0.721653        -0.243545
 C         1.396118        -0.053324        -0.133688
 C         1.836514         1.137515        -0.948866
 C         3.202554         0.795366        -0.294115
 C         4.260946         0.420840        -1.345499
 O         3.292253        -0.599065        -1.832491
 C         2.773506        -0.695458        -0.504798
 O         2.958618         1.264810         1.028795
 C         1.769457         0.466927         1.272678
 H        -0.696065        -0.220494         0.470598
 H        -0.360553        -0.942218        -1.253561
 H         0.155579        -1.732702         0.063662
 H         1.584806         0.894451        -2.042644
 H         1.487621         2.186497        -0.641416
 H         4.536251         1.207592        -2.158421
 H         5.152918        -0.019750        -0.981792
 H         3.214330        -1.635842        -0.081785
 H         2.102187        -0.309316         2.021668
 H         0.925927         1.145901         1.668191
