19
Iteration:   902
 C        -0.049863        -0.657752        -0.272849
 C         1.350304        -0.144675        -0.133108
 C         1.728859         1.177387        -0.875405
 C         3.222715         0.731943        -0.301667
 C         4.260373         0.666721        -1.437889
 O         3.264323        -0.406733        -1.902707
 C         2.729090        -0.673870        -0.570426
 O         3.105853         0.971499         1.163693
 C         1.860629         0.311916         1.294319
 H        -0.728916         0.139975        -0.023726
 H        -0.173292        -1.108475        -1.213980
 H        -0.286733        -1.432639         0.402490
 H         1.774993         1.122976        -1.936289
 H         1.426232         2.089580        -0.439311
 H         4.093566         1.532240        -2.217181
 H         5.283575         0.369800        -1.220364
 H         3.177894        -1.623997        -0.121611
 H         1.949927        -0.533114         2.054012
 H         1.088948         0.888290         1.935737
