19
Iteration:  4866
 C        -0.109597        -0.760188        -0.092772
 C         1.381301        -0.013086        -0.062930
 C         1.803708         1.169520        -1.049822
 C         3.181062         0.781475        -0.310784
 C         4.363864         0.492667        -1.327020
 O         3.451243        -0.587910        -1.910338
 C         2.697116        -0.663378        -0.530603
 O         2.934067         1.183258         1.016081
 C         1.780684         0.413563         1.258377
 H        -0.983670        -0.168399         0.484803
 H        -0.451016        -0.693753        -1.161872
 H        -0.141070        -1.708963         0.407529
 H         1.639840         1.092901        -2.135996
 H         1.583406         2.131559        -0.748360
 H         4.616168         1.140757        -2.112710
 H         5.267128        -0.073914        -0.926501
 H         3.204567        -1.421637         0.003646
 H         1.751584        -0.435935         2.036422
 H         0.926326         0.990530         1.674618
