19
Iteration:  1643charge 0 multiplicity 1
 C        -0.047933        -0.735195        -0.166973
 C         1.310710        -0.036092        -0.194375
 C         1.732943         1.201033        -0.891157
 C         3.180997         0.781783        -0.355539
 C         4.275623         0.512883        -1.361455
 O         3.420129        -0.556431        -1.848708
 C         2.698454        -0.564068        -0.517609
 O         3.086448         1.120463         1.003642
 C         1.796128         0.319889         1.234391
 H        -0.377359        -1.425699        -1.019661
 H        -0.230556        -1.464041         0.703673
 H        -1.054926        -0.039895        -0.052696
 H         1.589761         1.196631        -1.923593
 H         1.415181         2.029713        -0.364224
 H         4.768248         1.334801        -1.995696
 H         5.189621        -0.066756        -0.867306
 H         3.069805        -1.355003         0.190771
 H         1.828555        -0.545330         1.899349
 H         1.091894         0.974904         1.804567
