19
Iteration:  2620
 C        -0.020256        -0.730672        -0.380534
 C         1.370992        -0.101666        -0.087114
 C         1.763152         1.224442        -0.923912
 C         3.203569         0.730048        -0.291421
 C         4.232177         0.489661        -1.386015
 O         3.292871        -0.591651        -1.817439
 C         2.769101        -0.652337        -0.433407
 O         3.055384         1.239322         0.993527
 C         1.808733         0.417845         1.327226
 H        -0.770142         0.013807        -0.364476
 H         0.225446        -1.293899        -1.324108
 H        -0.269617        -1.572211         0.384964
 H         1.622920         0.979069        -1.945435
 H         1.317457         2.142785        -0.503499
 H         4.137961         1.204097        -2.178982
 H         5.226686         0.109009        -1.007232
 H         3.099970        -1.560298         0.092351
 H         1.950137        -0.470143         2.008736
 H         1.111111         0.985770         1.953102
