19
Iteration:  1260charge 0 multiplicity 1
 C         0.101957        -0.796009        -0.230525
 C         1.312927         0.038474        -0.181425
 C         1.693557         1.252226        -0.916945
 C         3.151743         0.814608        -0.296034
 C         4.196874         0.492900        -1.363875
 O         3.372873        -0.604638        -1.821651
 C         2.670409        -0.575463        -0.556036
 O         3.138196         1.070359         1.059838
 C         1.736078         0.361798         1.256976
 H        -0.382055        -0.502339        -1.159990
 H         0.455691        -1.760159        -0.301318
 H        -0.531543        -0.623167         0.604376
 H         1.646869         1.294939        -2.052576
 H         1.410101         2.288484        -0.371590
 H         4.431764         1.174014        -2.119548
 H         5.066878        -0.033536        -0.815367
 H         2.963052        -1.469081         0.043820
 H         1.943341        -0.602936         1.815421
 H         1.208356         1.143085         1.829260
