19
Iteration:  2066
 C        -0.049292        -0.719172        -0.239141
 C         1.337266        -0.064308        -0.189304
 C         1.717903         1.273358        -0.892404
 C         3.108386         0.850676        -0.380949
 C         4.264632         0.564106        -1.327656
 O         3.424700        -0.708857        -1.768950
 C         2.718072        -0.678532        -0.494803
 O         3.052756         1.148340         0.980297
 C         1.828710         0.341998         1.222044
 H        -0.730152         0.035520         0.309877
 H        -0.198502        -1.115901        -1.226222
 H        -0.029749        -1.567357         0.438003
 H         1.503633         1.231747        -1.948407
 H         1.378497         2.140298        -0.518370
 H         4.522901         1.222633        -2.059987
 H         5.270791         0.497558        -0.851460
 H         3.137564        -1.339923         0.309324
 H         2.035376        -0.533466         1.876317
 H         1.115296         0.997877         1.740449
