19
Iteration:   496
 C         0.000667        -0.679440        -0.356685
 C         1.358079        -0.170615         0.010924
 C         1.627666         1.263892        -0.598640
 C         3.172899         0.835791        -0.292603
 C         4.181534         0.733806        -1.429333
 O         3.145935        -0.238674        -2.093710
 C         2.706578        -0.553676        -0.698318
 O         3.301646         0.838739         1.127141
 C         1.940043        -0.041668         1.391710
 H        -0.427393        -1.679408        -0.037347
 H        -0.676056         0.085229         0.121521
 H        -0.219574        -0.569890        -1.421024
 H         1.426085         1.399250        -1.635206
 H         1.234439         2.039125        -0.013548
 H         4.503257         1.570002        -2.191936
 H         5.050175         0.083964        -1.097941
 H         3.248141        -1.484371        -0.550116
 H         2.241572        -0.949788         1.808635
 H         1.362942         0.671220         1.987001
