19
Iteration:  1037
 C        -0.077792        -0.692018        -0.250243
 C         1.327303        -0.031079        -0.127126
 C         1.699979         1.320476        -0.898510
 C         3.077691         0.762395        -0.389507
 C         4.200992         0.628171        -1.326878
 O         3.414766        -0.609655        -1.902676
 C         2.767198        -0.649372        -0.552086
 O         3.084422         1.054260         1.040290
 C         1.899953         0.220856         1.377485
 H        -0.035564        -1.754876        -0.201387
 H        -0.733755        -0.345074         0.438929
 H        -0.514212        -0.354728        -1.208212
 H         1.556284         1.223794        -2.005925
 H         1.354518         2.310907        -0.499137
 H         4.491967         1.382365        -2.182578
 H         5.140333         0.284528        -0.898911
 H         3.266465        -1.374288         0.146189
 H         2.134018        -0.716341         1.992696
 H         1.362310         0.935043         2.045414
