19
Iteration:  2668
 C         0.014059        -0.795189        -0.210548
 C         1.287922         0.011901        -0.165074
 C         1.706980         1.282755        -0.918010
 C         3.162331         0.807050        -0.340471
 C         4.285572         0.500863        -1.374996
 O         3.450425        -0.655843        -1.772219
 C         2.669413        -0.634154        -0.533408
 O         3.102862         1.061440         0.990541
 C         1.701922         0.437424         1.235184
 H        -0.617081        -0.414899         0.672757
 H        -0.390745        -0.849649        -1.223475
 H         0.285932        -1.819786         0.070332
 H         1.579216         1.221488        -2.021137
 H         1.441348         2.245115        -0.524613
 H         4.557043         1.403922        -2.078031
 H         5.191962         0.101721        -0.956587
 H         3.100048        -1.319578         0.229393
 H         1.782302        -0.237599         2.215698
 H         1.033471         1.269425         1.635364
