19
Iteration:  2827
 C        -0.003062        -0.754660        -0.215941
 C         1.334167        -0.124740        -0.122439
 C         1.772724         1.162023        -0.917089
 C         3.140084         0.756107        -0.390318
 C         4.259769         0.598647        -1.316836
 O         3.389589        -0.564497        -1.889318
 C         2.738537        -0.713386        -0.522545
 O         3.084777         1.108498         1.014603
 C         1.741903         0.527392         1.301700
 H        -0.708527        -0.001877        -0.003755
 H        -0.345801        -1.201490        -1.143521
 H        -0.173035        -1.623982         0.463312
 H         1.597071         0.993871        -2.005721
 H         1.401285         2.204269        -0.501489
 H         4.629686         1.410158        -1.854465
 H         5.035187         0.089058        -0.704626
 H         3.190218        -1.541488         0.074345
 H         1.855994        -0.165502         2.138221
 H         0.876183         1.138043         1.558329
