19
Iteration:  3450charge 0 multiplicity 1
 C        -0.060620        -0.743067        -0.243481
 C         1.306076        -0.113373        -0.149262
 C         1.779616         1.219557        -0.953858
 C         3.126939         0.817809        -0.338741
 C         4.256735         0.488973        -1.306312
 O         3.418501        -0.651985        -1.873470
 C         2.730820        -0.739362        -0.497411
 O         3.086473         1.233311         0.944844
 C         1.739624         0.485217         1.385433
 H        -0.782078        -0.314271         0.396108
 H        -0.411715        -0.679924        -1.256981
 H         0.230137        -1.741312         0.077614
 H         1.889830         1.019926        -1.975725
 H         1.354268         2.242463        -0.618614
 H         4.603499         1.198398        -2.098904
 H         5.118059         0.086990        -0.676225
 H         3.154044        -1.524406         0.095072
 H         1.903726        -0.361260         2.138434
 H         1.063023         1.206546         1.844261
