19
Iteration:  4739charge 0 multiplicity 1
 C        -0.123982        -0.752265        -0.156563
 C         1.253221        -0.051920        -0.107150
 C         1.769735         1.162929        -0.930878
 C         3.149717         0.806165        -0.384774
 C         4.360034         0.567133        -1.353490
 O         3.464957        -0.672136        -1.871640
 C         2.751850        -0.611995        -0.525879
 O         3.061452         1.067548         1.033588
 C         1.717005         0.493525         1.310817
 H        -0.737438         0.107847         0.022800
 H        -0.348851        -1.182792        -1.122137
 H        -0.219208        -1.508776         0.657811
 H         1.820154         0.817020        -2.075015
 H         1.227241         2.114053        -0.839525
 H         4.458969         1.437029        -2.110915
 H         5.368314         0.201457        -1.010714
 H         3.277593        -1.503034        -0.065142
 H         1.760941        -0.191259         2.127788
 H         1.193993         1.435449         1.430079
