19
Iteration:  4772
 C         0.095174        -0.697508        -0.360080
 C         1.348825        -0.076337        -0.160376
 C         1.806310         1.169266        -0.878777
 C         3.153038         0.837863        -0.332339
 C         4.215458         0.466509        -1.329618
 O         3.275991        -0.635747        -1.775963
 C         2.714759        -0.720788        -0.470593
 O         2.994788         1.286348         0.973171
 C         1.881128         0.365233         1.304166
 H        -0.590502         0.115712        -0.183930
 H        -0.146477        -1.216049        -1.269690
 H        -0.211596        -1.302934         0.539207
 H         1.849706         1.068553        -2.084395
 H         1.149398         2.032687        -0.625829
 H         4.362064         1.299306        -2.158616
 H         5.126105         0.021692        -0.855754
 H         2.884989        -1.740736         0.108209
 H         2.274617        -0.340064         2.025428
 H         1.144079         0.947524         1.910420
