19
Iteration:  1319
 C         0.001483        -0.632622        -0.238027
 C         1.400091        -0.157485        -0.148616
 C         1.733907         1.160145        -0.914917
 C         3.129656         0.771966        -0.311953
 C         4.141160         0.656562        -1.352028
 O         3.374724        -0.579788        -1.888116
 C         2.744553        -0.729425        -0.555542
 O         3.062466         1.099170         1.098181
 C         1.860543         0.354471         1.313451
 H        -0.112149        -1.175704        -1.200114
 H        -0.450737        -1.342950         0.581584
 H        -0.694150         0.242579        -0.295456
 H         1.640446         1.057371        -2.004287
 H         1.549038         2.214075        -0.535778
 H         4.370995         1.465728        -2.120143
 H         5.196456         0.365705        -1.032847
 H         3.139114        -1.653361        -0.144938
 H         1.812556        -0.350355         2.148963
 H         1.171826         1.199688         1.565833
