19
Iteration:  2319charge 0 multiplicity 1
 C         0.038105        -0.732959        -0.371477
 C         1.327400        -0.037990        -0.106975
 C         1.715791         1.124227        -0.913317
 C         3.142192         0.801256        -0.331112
 C         4.233749         0.433523        -1.305109
 O         3.269130        -0.583685        -1.827781
 C         2.773231        -0.671630        -0.436575
 O         3.107486         1.229147         0.973504
 C         1.814791         0.446110         1.319133
 H        -0.754909        -0.551949         0.368850
 H         0.029020        -0.602546        -1.410087
 H         0.270833        -1.741392        -0.256650
 H         1.371708         1.143057        -1.923660
 H         1.480478         2.134615        -0.608647
 H         4.383595         1.084052        -2.093082
 H         5.174047         0.102579        -0.880589
 H         3.150014        -1.428911         0.205761
 H         2.063356        -0.421136         2.017624
 H         1.013234         1.030868         1.823457
