19
Iteration:  3762charge 0 multiplicity 1
 C        -0.040640        -0.720430        -0.225648
 C         1.363801        -0.059425        -0.131954
 C         1.698078         1.215376        -1.009567
 C         3.177643         0.827338        -0.356922
 C         4.272235         0.465111        -1.313220
 O         3.402744        -0.632336        -1.830651
 C         2.738424        -0.630174        -0.483807
 O         3.001708         1.220869         1.020165
 C         1.836813         0.357924         1.316770
 H        -0.874648        -0.341067         0.285268
 H        -0.367117        -0.916470        -1.236314
 H         0.039740        -1.705018         0.257571
 H         1.520612         0.946144        -2.043738
 H         1.154802         2.232027        -0.815017
 H         4.662991         1.165895        -2.099944
 H         5.247515         0.082843        -0.838095
 H         3.145439        -1.521761         0.021482
 H         2.151423        -0.478738         1.981046
 H         1.045718         1.078652         1.737668
