19
Iteration:   138
 C         0.043196        -0.680897        -0.246312
 C         1.371180        -0.068828        -0.111355
 C         1.571474         1.493998        -0.357770
 C         3.078363         0.829738        -0.236129
 C         4.051983         0.827353        -1.412540
 O         3.142233        -0.082090        -2.189671
 C         2.609043        -0.511535        -0.841069
 O         3.393583         0.494876         1.140172
 C         2.095470        -0.269480         1.258749
 H        -0.178726        -0.551539        -1.330747
 H         0.092929        -1.763841         0.067361
 H        -0.785970         0.001640         0.313065
 H         1.288724         1.890989        -1.361661
 H         1.276867         2.251924         0.462801
 H         4.358318         1.845780        -1.866093
 H         5.130370         0.370536        -1.214155
 H         3.237361        -1.418115        -0.639234
 H         2.334148        -1.327287         1.402310
 H         1.576075         0.070367         2.136782
