19
Iteration:  4630charge 0 multiplicity 1
 C        -0.019530        -0.800495        -0.371427
 C         1.281901        -0.050762        -0.150651
 C         1.728869         1.268576        -0.889206
 C         3.177974         0.784494        -0.304701
 C         4.205194         0.526920        -1.412546
 O         3.372675        -0.717818        -1.804770
 C         2.736552        -0.631877        -0.403757
 O         3.151417         1.128982         1.034390
 C         1.817277         0.532680         1.309582
 H        -0.894894        -0.158271        -0.280059
 H        -0.000773        -1.249538        -1.387954
 H        -0.295363        -1.697549         0.238746
 H         1.629271         1.183824        -2.043465
 H         1.241862         2.110450        -0.475339
 H         4.180706         1.361531        -2.157344
 H         5.179315         0.230071        -1.100471
 H         3.115580        -1.510945         0.157707
 H         2.094295        -0.192014         2.148845
 H         0.984879         1.209169         1.731388
