19
Iteration:  2148
 C         0.001461        -0.819036        -0.214269
 C         1.361387        -0.074142        -0.168382
 C         1.773959         1.278986        -0.940363
 C         3.156813         0.852838        -0.350574
 C         4.193682         0.533644        -1.398023
 O         3.414260        -0.723766        -1.843170
 C         2.733511        -0.627056        -0.528001
 O         3.098866         1.063572         1.137166
 C         1.686636         0.535962         1.275826
 H        -0.741046        -0.339411         0.301535
 H        -0.307666        -0.636193        -1.260848
 H         0.325934        -1.848279         0.012991
 H         1.705350         1.179082        -2.029691
 H         1.458176         2.342746        -0.515697
 H         4.214802         1.341114        -2.170457
 H         5.033043         0.070539        -1.039428
 H         3.116371        -1.506907         0.123572
 H         1.828752        -0.153608         2.047411
 H         1.022939         1.354779         1.545276
