19
Iteration:  4334charge 0 multiplicity 1
 C         0.029143        -0.836412        -0.301252
 C         1.296723        -0.056161        -0.157928
 C         1.801765         1.253532        -0.934667
 C         3.170930         0.784676        -0.341260
 C         4.235777         0.415050        -1.384102
 O         3.317194        -0.610242        -1.788318
 C         2.742649        -0.655987        -0.487408
 O         3.022304         1.294772         1.071669
 C         1.808573         0.408986         1.268567
 H        -0.872614        -0.462204         0.259687
 H        -0.207716        -0.847213        -1.412957
 H         0.248665        -1.842914        -0.014207
 H         1.568275         1.344737        -1.918931
 H         1.596254         2.217099        -0.507692
 H         4.504033         1.079788        -2.240098
 H         5.162433         0.030379        -0.799222
 H         3.125613        -1.454649         0.099690
 H         2.078534        -0.380965         2.026301
 H         1.086834         1.027171         1.861036
