19
Iteration:  4205
 C        -0.000410        -0.830347        -0.309179
 C         1.290816         0.027678        -0.153193
 C         1.645201         1.332875        -0.855588
 C         3.122189         0.849117        -0.371462
 C         4.235271         0.469231        -1.376036
 O         3.514426        -0.734879        -1.737414
 C         2.644942        -0.582723        -0.524189
 O         3.116328         1.136911         1.002907
 C         1.813971         0.386492         1.263391
 H        -0.805960        -0.121830        -0.155834
 H        -0.219291        -1.320661        -1.281609
 H        -0.218477        -1.560780         0.444805
 H         1.595894         1.367611        -1.901749
 H         1.452615         2.300610        -0.279499
 H         4.485035         1.212639        -2.221144
 H         5.092923         0.180332        -0.925153
 H         2.886615        -1.403926         0.189104
 H         2.184657        -0.451352         1.746431
 H         1.188054         0.957514         1.881169
