19
Iteration:  3843
 C         0.040384        -0.743105        -0.294046
 C         1.362616        -0.107315        -0.043574
 C         1.758882         1.098134        -0.884816
 C         3.179780         0.763323        -0.366561
 C         4.310934         0.529734        -1.377294
 O         3.332000        -0.592827        -1.947600
 C         2.730206        -0.670645        -0.456984
 O         2.991222         1.195094         1.087629
 C         1.751595         0.512744         1.317056
 H        -0.674912         0.091286        -0.070051
 H        -0.133132        -1.049024        -1.353415
 H        -0.228218        -1.584879         0.327930
 H         1.751060         0.768519        -1.970451
 H         1.521367         2.103547        -0.767755
 H         4.428736         1.351748        -2.212548
 H         5.151720         0.013391        -0.922370
 H         3.345152        -1.509376         0.002710
 H         1.826815        -0.252682         2.158510
 H         0.978150         1.260053         1.673545
