19
Iteration:    66
 C        -0.068809        -0.654675        -0.170376
 C         1.401981        -0.163419        -0.070247
 C         1.734756         1.314109        -0.400134
 C         3.183143         0.728660        -0.260362
 C         4.083643         0.968852        -1.389052
 O         3.030066         0.165301        -2.157200
 C         2.740751        -0.579780        -0.932492
 O         3.323389         0.436306         1.071971
 C         2.028626        -0.233770         1.304073
 H        -0.114169        -1.679906         0.130702
 H        -0.759902         0.014649         0.361662
 H        -0.301617        -0.685880        -1.228948
 H         1.467862         1.635762        -1.381452
 H         1.521111         2.044065         0.358041
 H         4.240421         1.950990        -1.764683
 H         4.977618         0.355238        -1.294492
 H         3.247855        -1.559670        -0.770816
 H         2.179099        -1.223707         1.825204
 H         1.389692         0.386010         1.970669
