19
Iteration:  3003charge 0 multiplicity 1
 C        -0.062207        -0.670223        -0.232019
 C         1.341546        -0.154735        -0.092286
 C         1.663951         1.092385        -0.873564
 C         3.121277         0.778240        -0.350033
 C         4.221205         0.563299        -1.310532
 O         3.542022        -0.581145        -1.891290
 C         2.709914        -0.695061        -0.567269
 O         3.095561         1.148787         1.024987
 C         1.816452         0.475661         1.315053
 H        -0.742955         0.140344        -0.092747
 H        -0.329922        -0.994270        -1.239576
 H        -0.602861        -1.194799         0.624983
 H         1.710365         0.743276        -1.987534
 H         1.038878         2.062971        -0.779644
 H         4.246270         1.290591        -2.027066
 H         5.232242         0.254639        -1.049065
 H         3.283785        -1.464048        -0.001935
 H         1.952638        -0.441538         1.998105
 H         1.028396         1.265265         1.573869
