19
Iteration:   618charge 0 multiplicity 1
 C        -0.058273        -0.700075        -0.299572
 C         1.317233        -0.054539        -0.049067
 C         1.718185         1.339336        -0.682488
 C         3.206274         0.753581        -0.288239
 C         4.195866         0.722410        -1.486102
 O         3.231760        -0.334429        -2.036476
 C         2.720981        -0.593163        -0.676921
 O         3.188439         0.855912         1.145880
 C         1.953228         0.036614         1.386451
 H        -0.836147        -0.253347        -0.957161
 H         0.166062        -1.709006        -0.752314
 H        -0.732404        -0.912978         0.652701
 H         1.483136         1.369288        -1.745767
 H         1.409452         2.239615        -0.185902
 H         4.086499         1.724902        -2.107068
 H         5.268639         0.460208        -1.402351
 H         3.086632        -1.485934        -0.142722
 H         2.144299        -0.963972         1.748148
 H         1.315261         0.560775         2.122146
