19
Iteration:  1590
 C        -0.093034        -0.760176        -0.314398
 C         1.301909        -0.059311        -0.084835
 C         1.762535         1.252404        -0.860249
 C         3.197657         0.759082        -0.334423
 C         4.271647         0.585030        -1.408238
 O         3.353981        -0.546422        -1.841287
 C         2.761184        -0.721168        -0.529933
 O         3.105584         1.081490         1.038795
 C         1.815535         0.417736         1.318988
 H        -0.077044        -1.737818        -0.794190
 H        -0.666035        -1.004109         0.629685
 H        -0.913892        -0.103567        -0.746061
 H         1.657335         1.095268        -1.919367
 H         1.340449         2.168603        -0.435418
 H         4.120597         1.381142        -2.068951
 H         5.421221         0.300577        -1.292478
 H         3.197717        -1.589388         0.083590
 H         2.013265        -0.463101         1.921894
 H         1.102666         1.130546         1.848461
