19
Iteration:   117
 C        -0.070296        -0.727130        -0.234439
 C         1.318515        -0.079583        -0.060465
 C         1.789701         1.353234        -0.304939
 C         3.164562         0.835089        -0.265231
 C         4.052824         0.928991        -1.508847
 O         3.165584        -0.028080        -2.128643
 C         2.640958        -0.426847        -0.907988
 O         3.303158         0.434772         1.097252
 C         2.045010        -0.235224         1.303238
 H        -0.177955        -1.370624        -1.116921
 H        -0.199846        -1.405100         0.648471
 H        -0.965021         0.085476        -0.312666
 H         1.496014         1.725860        -1.285243
 H         1.478436         2.159798         0.398300
 H         4.233385         1.850218        -2.118547
 H         5.157193         0.598469        -1.264165
 H         3.220377        -1.371742        -0.531054
 H         2.231548        -1.323459         1.505812
 H         1.483967         0.182493         2.143247
