19
Iteration:  4218charge 0 multiplicity 1
 C        -0.090485        -0.712821        -0.255565
 C         1.258477        -0.030924        -0.139106
 C         1.736808         1.330387        -0.878499
 C         3.130733         0.861964        -0.377958
 C         4.263904         0.462141        -1.415417
 O         3.534468        -0.743920        -1.842735
 C         2.724584        -0.605399        -0.497762
 O         3.005297         1.185776         1.077241
 C         1.840320         0.305011         1.312464
 H        -0.991904        -0.146214        -0.360747
 H         0.070495        -1.216324        -1.184556
 H        -0.092624        -1.435981         0.601364
 H         1.573255         1.152094        -1.969753
 H         1.234901         2.313626        -0.639514
 H         4.358872         1.090858        -2.351152
 H         5.208115         0.330480        -0.959743
 H         3.261033        -1.390547         0.163889
 H         1.997608        -0.573367         1.967650
 H         1.127717         0.903433         1.834246
