19
Iteration:  4889charge 0 multiplicity 1
 C        -0.032055        -0.732318        -0.269843
 C         1.291692        -0.040682        -0.172389
 C         1.668879         1.140707        -0.891168
 C         3.080828         0.842596        -0.392556
 C         4.324475         0.482507        -1.235865
 O         3.429884        -0.664327        -1.817735
 C         2.686674        -0.646577        -0.582257
 O         3.072445         1.266036         0.959588
 C         1.875202         0.353115         1.306173
 H        -0.617539         0.116512         0.297697
 H        -0.519109        -0.950903        -1.230384
 H        -0.012994        -1.464089         0.524470
 H         1.634176         1.154461        -2.014462
 H         1.357955         2.099233        -0.620206
 H         4.689006         1.126760        -1.963469
 H         5.102828        -0.018038        -0.579895
 H         3.014635        -1.376536         0.122549
 H         2.197022        -0.529687         1.955279
 H         1.122122         0.847369         1.914755
