19
Iteration:  2733
 C        -0.082066        -0.698799        -0.272515
 C         1.338371        -0.128288        -0.138599
 C         1.747990         1.257715        -0.968627
 C         3.076032         0.784640        -0.357023
 C         4.181713         0.526142        -1.322731
 O         3.472938        -0.626752        -1.814987
 C         2.776735        -0.693720        -0.525594
 O         3.046175         1.177621         1.006302
 C         1.868620         0.395887         1.349838
 H        -0.813379         0.050098         0.176894
 H        -0.408164        -0.884264        -1.316402
 H        -0.170113        -1.713515         0.129444
 H         1.694153         0.974831        -2.031719
 H         1.368926         2.139105        -0.617691
 H         4.469471         1.305685        -2.106876
 H         4.983700         0.033716        -0.863782
 H         3.312674        -1.351097         0.182243
 H         2.019662        -0.341297         2.205221
 H         1.105328         1.071795         1.832240
