19
Iteration:    65
 C        -0.073649        -0.662088        -0.166170
 C         1.402858        -0.158150        -0.071782
 C         1.724651         1.327248        -0.400032
 C         3.189177         0.730193        -0.261435
 C         4.087544         0.969937        -1.394815
 O         3.032402         0.163515        -2.165389
 C         2.737098        -0.576368        -0.921983
 O         3.329563         0.434442         1.074686
 C         2.026041        -0.239900         1.304005
 H        -0.134122        -1.667066         0.142371
 H        -0.752243         0.043755         0.322273
 H        -0.308221        -0.707066        -1.268559
 H         1.451887         1.634248        -1.376704
 H         1.504342         2.023460         0.374245
 H         4.225226         1.939791        -1.765140
 H         4.988375         0.331747        -1.263610
 H         3.283656        -1.568452        -0.761133
 H         2.179294        -1.247358         1.830671
 H         1.398266         0.382576         1.982363
