19
Iteration:  2257charge 0 multiplicity 1
 C         0.000420        -0.709777        -0.105021
 C         1.322133        -0.035828        -0.256832
 C         1.778960         1.211670        -0.949137
 C         3.134274         0.779465        -0.396349
 C         4.187651         0.626416        -1.353586
 O         3.478043        -0.643152        -1.768285
 C         2.685333        -0.685355        -0.554259
 O         3.046624         1.012528         1.050188
 C         1.755475         0.467200         1.251953
 H        -0.820536         0.012091         0.060831
 H        -0.348560        -1.312948        -1.042260
 H        -0.055894        -1.535629         0.730236
 H         1.906297         1.138790        -1.999034
 H         1.620863         2.213369        -0.567771
 H         4.266899         1.190514        -2.337725
 H         5.293065         0.539425        -0.936880
 H         3.154814        -1.489895         0.110592
 H         1.928771        -0.318483         2.035394
 H         1.042539         1.223804         1.623263
