19
Iteration:  2412
 C        -0.124557        -0.686506        -0.198047
 C         1.328396        -0.126274        -0.122905
 C         1.729962         1.111923        -0.936848
 C         3.164416         0.817324        -0.367937
 C         4.350517         0.471383        -1.239028
 O         3.401513        -0.516277        -1.959743
 C         2.741019        -0.706142        -0.493010
 O         3.022590         1.234499         1.000700
 C         1.843432         0.427619         1.306828
 H        -0.900767         0.025824        -0.168889
 H        -0.146355        -1.493306        -0.986870
 H        -0.525055        -1.246305         0.721669
 H         1.623209         1.028517        -2.037964
 H         1.305134         2.034173        -0.743851
 H         4.661719         1.150944        -2.072724
 H         5.112683        -0.097060        -0.689410
 H         3.162523        -1.714521        -0.228794
 H         2.156479        -0.430346         2.006967
 H         1.121885         0.970414         1.979939
