19
Iteration:  2340
 C        -0.025711        -0.826741        -0.341747
 C         1.331765        -0.068320        -0.115803
 C         1.807373         1.285542        -0.898200
 C         3.220856         0.868844        -0.350097
 C         4.183046         0.517858        -1.438497
 O         3.392341        -0.699944        -1.791355
 C         2.682264        -0.684386        -0.477419
 O         3.069511         1.154415         1.066679
 C         1.808341         0.472465         1.345704
 H        -0.776061        -0.292429         0.311915
 H        -0.206748        -0.774843        -1.412968
 H        -0.063041        -1.825505        -0.031520
 H         1.702123         1.209740        -2.003336
 H         1.233556         2.247757        -0.692619
 H         4.183200         1.186386        -2.281799
 H         5.196743         0.221890        -1.146186
 H         3.058166        -1.485442         0.127200
 H         1.933481        -0.259532         2.149131
 H         1.011714         1.137181         1.722518
