19
Iteration:  2660
 C         0.052196        -0.800563        -0.262221
 C         1.313178         0.043191        -0.164201
 C         1.638416         1.309588        -0.926202
 C         3.141473         0.841463        -0.348652
 C         4.287083         0.425880        -1.310051
 O         3.421228        -0.673598        -1.775151
 C         2.697722        -0.622240        -0.571934
 O         3.120709         1.089276         1.024838
 C         1.736755         0.429356         1.293872
 H        -0.813788        -0.349980         0.330351
 H        -0.503214        -0.914513        -1.198707
 H         0.391951        -1.748637         0.061256
 H         1.501162         1.031673        -2.058268
 H         1.334545         2.368631        -0.503338
 H         4.158642         1.151981        -2.129378
 H         5.392536         0.167192        -1.012581
 H         3.185618        -1.315929         0.143171
 H         1.996407        -0.348650         2.063118
 H         1.039575         1.207406         1.612501
