19
Iteration:  1995charge 0 multiplicity 1
 C        -0.054628        -0.790980        -0.298665
 C         1.376818        -0.115252        -0.140635
 C         1.791747         1.246089        -0.877398
 C         3.181599         0.793440        -0.374006
 C         4.260512         0.464405        -1.392175
 O         3.321786        -0.570805        -1.867802
 C         2.738051        -0.686081        -0.467324
 O         3.068393         1.203506         1.140480
 C         1.769913         0.458751         1.270672
 H        -0.751325        -0.055720        -0.405463
 H         0.079552        -1.526538        -1.119038
 H        -0.305266        -1.331745         0.649363
 H         1.717174         1.162691        -1.972088
 H         1.298770         2.201480        -0.518652
 H         4.520822         1.120297        -2.295159
 H         5.194143         0.067863        -1.208790
 H         3.180068        -1.533042         0.058043
 H         1.940562        -0.309558         2.060569
 H         0.868104         1.062699         1.576926
