19
Iteration:  4008charge 0 multiplicity 1
 C         0.039150        -0.810647        -0.296529
 C         1.333255        -0.037838        -0.179602
 C         1.616582         1.345450        -0.893217
 C         3.177550         0.817448        -0.331497
 C         4.247701         0.522112        -1.339239
 O         3.438637        -0.671075        -1.755055
 C         2.645869        -0.703837        -0.569894
 O         3.157821         1.082825         1.012655
 C         1.791870         0.478678         1.314384
 H        -0.788814        -0.247235         0.053924
 H        -0.273813        -1.103679        -1.313171
 H        -0.001991        -1.705956         0.226354
 H         1.372896         1.325812        -2.016036
 H         1.284394         2.324494        -0.563502
 H         4.373877         1.143667        -2.304547
 H         5.122750         0.202369        -0.809477
 H         2.994639        -1.467422         0.222234
 H         1.877400        -0.206169         2.216095
 H         1.033558         1.228082         1.544572
