19
Iteration:   804charge 0 multiplicity 1
 C        -0.003708        -0.728397        -0.311335
 C         1.367494        -0.106157        -0.046944
 C         1.774037         1.263721        -0.698015
 C         3.152704         0.776491        -0.298283
 C         4.246026         0.506125        -1.483205
 O         3.293948        -0.310432        -1.961832
 C         2.670793        -0.662285        -0.660665
 O         3.101723         1.048108         1.113458
 C         1.840942         0.189511         1.351789
 H        -0.076602        -1.485206        -1.111093
 H        -0.394094        -1.114874         0.615637
 H        -0.703041         0.147516        -0.681673
 H         1.505595         1.194059        -1.755665
 H         1.439023         2.128530        -0.172133
 H         4.314127         1.395573        -2.283623
 H         5.196903         0.139225        -1.255489
 H         3.152198        -1.630653        -0.229087
 H         2.305196        -0.711985         1.925462
 H         1.103499         0.695264         2.111538
