19
Iteration:  1767
 C        -0.060398        -0.772942        -0.184053
 C         1.269185        -0.060333        -0.247394
 C         1.754636         1.258511        -0.919622
 C         3.119164         0.820942        -0.382627
 C         4.251759         0.557591        -1.358369
 O         3.444233        -0.642169        -1.844136
 C         2.700702        -0.639223        -0.481923
 O         3.130651         1.075196         1.067749
 C         1.797806         0.437412         1.271956
 H        -0.813764        -0.020041        -0.407182
 H        -0.170770        -1.725680        -0.810306
 H        -0.498122        -1.059035         0.829314
 H         1.808501         1.149998        -2.012405
 H         1.274459         2.177001        -0.601884
 H         4.633565         1.258210        -2.003766
 H         5.104976         0.044607        -0.748274
 H         3.286014        -1.377050         0.111034
 H         1.826274        -0.399579         1.928616
 H         1.114069         1.219890         1.587513
