19
Iteration:  2716charge 0 multiplicity 1
 C        -0.034743        -0.655714        -0.177014
 C         1.358523        -0.072973        -0.113730
 C         1.739761         1.036755        -0.980666
 C         3.188657         0.775817        -0.355534
 C         4.335973         0.579992        -1.325674
 O         3.392302        -0.535519        -1.848909
 C         2.710340        -0.715726        -0.450793
 O         3.025113         1.128724         1.010004
 C         1.724535         0.439211         1.231124
 H        -0.654465        -0.110517         0.514425
 H        -0.315840        -0.520677        -1.225514
 H        -0.100566        -1.727134         0.073928
 H         1.726954         0.850120        -2.083837
 H         1.354654         2.087623        -0.586864
 H         4.419532         1.261643        -2.128418
 H         5.380277         0.416019        -0.837116
 H         3.082697        -1.677295        -0.069219
 H         1.916573        -0.363493         1.948574
 H         0.988615         1.066612         1.712995
