19
Iteration:  1776charge 0 multiplicity 1
 C        -0.077418        -0.707597        -0.144784
 C         1.381306        -0.086510        -0.159401
 C         1.699933         1.233632        -0.990161
 C         3.129138         0.845093        -0.283650
 C         4.235641         0.497167        -1.349143
 O         3.477947        -0.618656        -1.858622
 C         2.736010        -0.667519        -0.586972
 O         3.118470         1.053078         1.106316
 C         1.734006         0.486489         1.227263
 H        -0.847019        -0.031474        -0.502690
 H        -0.089155        -1.513279        -0.977690
 H        -0.231458        -1.260065         0.851347
 H         1.543114         1.179382        -2.047699
 H         1.273118         2.078512        -0.588138
 H         4.366212         1.184430        -2.140764
 H         5.200111         0.147992        -0.912768
 H         3.044489        -1.520058         0.063503
 H         1.876598        -0.286935         1.993532
 H         1.018742         1.282016         1.570851
