19
Iteration:  4899charge 0 multiplicity 1
 C        -0.038630        -0.696252        -0.230082
 C         1.363514        -0.114817        -0.162074
 C         1.649159         1.264642        -0.958710
 C         3.131142         0.832538        -0.368758
 C         4.256656         0.539042        -1.226829
 O         3.403158        -0.687716        -1.743150
 C         2.668780        -0.636148        -0.541988
 O         3.100252         1.197326         0.950207
 C         1.899966         0.366067         1.251284
 H        -1.003362        -0.041800        -0.087552
 H        -0.247817        -1.062892        -1.299311
 H        -0.243669        -1.649356         0.286141
 H         1.406696         1.013209        -2.012780
 H         1.234179         2.060854        -0.458663
 H         4.647014         1.091573        -2.035962
 H         5.174447         0.141863        -0.671177
 H         3.100932        -1.412761         0.058838
 H         2.269853        -0.562064         1.813733
 H         1.196894         1.032750         1.769144
