19
Iteration:  3250charge 0 multiplicity 1
 C         0.032767        -0.794707        -0.274078
 C         1.368080        -0.064399        -0.134261
 C         1.805296         1.202567        -0.964799
 C         3.157715         0.790938        -0.295945
 C         4.205638         0.520732        -1.439344
 O         3.354215        -0.677311        -1.774751
 C         2.699124        -0.634071        -0.425389
 O         3.129926         1.098363         1.051304
 C         1.677162         0.552643         1.266950
 H        -0.681512        -0.359475         0.462225
 H        -0.297833        -0.776659        -1.311555
 H         0.058677        -1.881468        -0.190839
 H         1.735403         1.353603        -2.135530
 H         1.304293         2.076269        -0.457559
 H         4.361245         1.090510        -2.421169
 H         5.148615         0.246704        -1.093647
 H         3.267789        -1.323094         0.227570
 H         1.598103        -0.185390         2.117355
 H         1.165184         1.554095         1.416412
