19
Iteration:  1846charge 0 multiplicity 1
 C         0.073350        -0.752297        -0.307527
 C         1.343371         0.038653        -0.070093
 C         1.675370         1.273223        -0.936505
 C         3.101629         0.835387        -0.462123
 C         4.254817         0.419858        -1.353860
 O         3.439249        -0.726770        -1.805310
 C         2.692831        -0.611649        -0.440192
 O         3.031354         1.145538         1.022608
 C         1.805597         0.412078         1.316143
 H        -0.706252        -0.602289         0.460767
 H        -0.415045        -0.270470        -1.115955
 H         0.295658        -1.755232        -0.542996
 H         1.461022         1.322395        -2.010249
 H         1.397236         2.240713        -0.427094
 H         4.433642         1.051058        -2.114896
 H         5.121181         0.262923        -0.660134
 H         3.148973        -1.445142         0.071798
 H         2.005458        -0.476773         1.899138
 H         1.118896         1.009080         1.842036
