19
Iteration:  3089
 C         0.039372        -0.844603        -0.318638
 C         1.239590         0.014358        -0.045522
 C         1.680736         1.283255        -0.875119
 C         3.145751         0.881041        -0.440091
 C         4.248002         0.386217        -1.321129
 O         3.418685        -0.682130        -1.842144
 C         2.666400        -0.536846        -0.452139
 O         3.142019         1.200885         0.953149
 C         1.785237         0.376138         1.334420
 H        -0.833636        -0.315149         0.127978
 H         0.043257        -0.933625        -1.418386
 H         0.163932        -1.963333        -0.034127
 H         1.466323         1.103543        -1.959332
 H         1.464796         2.150889        -0.354109
 H         4.664663         1.082237        -2.045418
 H         5.221975        -0.028905        -0.690205
 H         3.063921        -1.365039         0.155111
 H         1.796255        -0.454989         2.049110
 H         1.069671         1.137121         1.639166
