19
Iteration:  2422
 C        -0.037168        -0.682282        -0.181563
 C         1.290860        -0.116889        -0.046636
 C         1.692878         1.174903        -0.990797
 C         3.166009         0.797961        -0.380927
 C         4.284616         0.464193        -1.289102
 O         3.385341        -0.543211        -1.869851
 C         2.709927        -0.666736        -0.488938
 O         3.007792         1.220595         0.996419
 C         1.859597         0.348326         1.264326
 H        -0.770510         0.057637        -0.459043
 H         0.063083        -1.236396        -1.173907
 H        -0.077662        -1.409096         0.718401
 H         1.722280         1.161117        -2.095090
 H         1.569141         2.115442        -0.529630
 H         4.791806         1.198009        -1.898250
 H         5.171767        -0.026846        -0.850451
 H         3.131531        -1.633375        -0.052811
 H         2.160177        -0.592669         1.938629
 H         1.093448         1.121805         1.570301
