19
Iteration:  1503
 C         0.019213        -0.713520        -0.234234
 C         1.341183        -0.100408        -0.169970
 C         1.668050         1.178211        -0.935885
 C         3.135310         0.788271        -0.361004
 C         4.296101         0.475636        -1.286290
 O         3.335138        -0.511708        -1.885795
 C         2.688800        -0.667639        -0.514036
 O         3.066008         1.193615         1.060809
 C         1.871466         0.349701         1.270512
 H        -0.241828        -0.849932        -1.284601
 H        -0.079480        -1.692533         0.260039
 H        -0.598710         0.007839         0.348807
 H         1.621195         1.313529        -2.047894
 H         1.330835         2.133839        -0.293194
 H         4.611300         1.073005        -2.066240
 H         5.237507         0.063456        -0.783256
 H         3.219722        -1.582276        -0.054661
 H         1.991196        -0.564442         1.908628
 H         0.999766         0.891268         1.808947
