19
Iteration:  2253
 C        -0.045253        -0.704878        -0.149689
 C         1.359871        -0.016887        -0.245710
 C         1.808838         1.173856        -0.957653
 C         3.096201         0.796161        -0.400530
 C         4.163705         0.613168        -1.354971
 O         3.497787        -0.651830        -1.793762
 C         2.696109        -0.693483        -0.557680
 O         3.062308         1.015642         1.087972
 C         1.759881         0.468419         1.252391
 H        -0.876219         0.043326         0.209550
 H        -0.291193        -1.448762        -0.930079
 H        -0.082191        -1.328240         0.762371
 H         1.811804         1.156412        -2.053196
 H         1.474729         2.117189        -0.576025
 H         4.258263         1.241583        -2.200744
 H         5.214247         0.620234        -0.966728
 H         3.199079        -1.418920         0.040906
 H         1.925407        -0.312281         2.115175
 H         1.088623         1.286555         1.683169
