19
Iteration:  2927charge 0 multiplicity 1
 C         0.051619        -0.844178        -0.301561
 C         1.312237        -0.093881        -0.095568
 C         1.786096         1.166853        -0.906611
 C         3.184304         0.740594        -0.256677
 C         4.162783         0.511334        -1.327344
 O         3.312496        -0.518696        -1.886712
 C         2.780482        -0.637161        -0.454424
 O         3.118162         1.079149         0.990479
 C         1.722714         0.601640         1.264613
 H        -0.768170        -0.283428         0.101547
 H        -0.149978        -1.042428        -1.350238
 H        -0.149293        -1.820950         0.251259
 H         1.723799         0.826889        -2.021566
 H         1.504333         2.252642        -0.592374
 H         4.429553         1.264967        -2.031906
 H         5.070158         0.067524        -0.945913
 H         3.358365        -1.473334         0.019696
 H         1.792130        -0.137385         2.116744
 H         1.049149         1.459073         1.553092
