19
Iteration:  3159
 C        -0.103366        -0.693841        -0.185064
 C         1.307515        -0.084851        -0.128247
 C         1.749273         1.232929        -0.984754
 C         3.189982         0.800053        -0.357639
 C         4.172190         0.555367        -1.436982
 O         3.602802        -0.687998        -1.855819
 C         2.750874        -0.661143        -0.488408
 O         3.016630         1.070434         1.088719
 C         1.764529         0.451405         1.277845
 H        -0.672316         0.183519        -0.190759
 H        -0.258830        -1.524935        -0.868415
 H        -0.207541        -1.126090         0.799256
 H         1.494293         1.054475        -2.008374
 H         1.279831         2.146230        -0.478362
 H         4.150479         1.262662        -2.293574
 H         5.212406         0.468008        -1.137117
 H         3.083293        -1.410133         0.250149
 H         1.703572        -0.299089         2.141772
 H         1.095035         1.341012         1.525176
