19
Iteration:  1679
 C        -0.040275        -0.743395        -0.272824
 C         1.309057        -0.043298        -0.178407
 C         1.785253         1.166205        -0.924528
 C         3.163640         0.778664        -0.333112
 C         4.156309         0.601456        -1.417239
 O         3.458924        -0.633776        -1.850238
 C         2.679447        -0.679998        -0.561565
 O         3.141108         1.047308         1.124613
 C         1.763933         0.508014         1.355026
 H        -0.529532        -0.613628        -1.240528
 H         0.206255        -1.842333        -0.015325
 H        -0.613217        -0.302139         0.600184
 H         1.715562         1.089465        -2.036530
 H         1.229021         2.082641        -0.621636
 H         4.137672         1.486847        -1.963384
 H         5.239142         0.216331        -1.056897
 H         3.001985        -1.585769         0.061631
 H         1.795777        -0.200276         2.139310
 H         1.167944         1.417155         1.564906
