19
Iteration:   363charge 0 multiplicity 1
 C         0.044752        -0.637408        -0.277907
 C         1.400191        -0.079861        -0.070731
 C         1.790227         1.306870        -0.524781
 C         3.214908         0.786942        -0.261752
 C         4.079785         0.686775        -1.463652
 O         3.088871        -0.120602        -2.131968
 C         2.673878        -0.596452        -0.794644
 O         3.141747         0.857676         1.214590
 C         2.013824        -0.178450         1.329867
 H        -0.468490        -0.256432        -1.202623
 H         0.074160        -1.747196        -0.408734
 H        -0.502904        -0.387061         0.577922
 H         1.720827         1.443706        -1.571836
 H         1.431322         2.036900         0.067330
 H         4.247193         1.678757        -2.013335
 H         5.067712         0.098011        -1.318832
 H         3.088527        -1.581634        -0.613542
 H         2.468032        -1.135401         1.576509
 H         1.319255         0.028601         2.176625
