19
Iteration:  4309
 C         0.077786        -0.849215        -0.240160
 C         1.297250         0.058381        -0.236066
 C         1.733347         1.315300        -0.941908
 C         3.138564         0.858668        -0.391639
 C         4.237476         0.475078        -1.331801
 O         3.350930        -0.712627        -1.753182
 C         2.731788        -0.577032        -0.518576
 O         3.081150         1.128609         1.063006
 C         1.784763         0.397581         1.262887
 H        -0.776471        -0.370969         0.324308
 H        -0.250108        -1.022711        -1.300277
 H         0.289132        -1.858994         0.187185
 H         1.648704         1.223851        -2.060554
 H         1.303708         2.321194        -0.814731
 H         4.427768         1.097698        -2.163761
 H         5.176054         0.248570        -0.666243
 H         2.991474        -1.422839         0.220807
 H         1.860131        -0.585195         1.888247
 H         1.158287         0.993088         2.023983
