19
Iteration:   604charge 0 multiplicity 1
 C        -0.045745        -0.696870        -0.290923
 C         1.326088        -0.112843        -0.062205
 C         1.731063         1.255954        -0.674444
 C         3.128700         0.731804        -0.312795
 C         4.175754         0.672072        -1.406626
 O         3.259129        -0.213355        -2.164801
 C         2.653007        -0.674994        -0.680020
 O         3.154404         0.944873         1.155334
 C         2.004835         0.077636         1.458514
 H        -0.410568        -0.157601        -1.219157
 H        -0.018815        -1.826234        -0.416310
 H        -0.650425        -0.457166         0.589316
 H         1.565664         1.328997        -1.720234
 H         1.431231         2.104916        -0.135510
 H         4.479106         1.564010        -1.931356
 H         5.013996         0.073660        -1.146792
 H         3.235576        -1.609365        -0.574813
 H         2.431052        -0.833993         1.876955
 H         1.371238         0.504112         2.275902
