19
Iteration:  1216
 C        -0.027191        -0.745688        -0.205157
 C         1.364274        -0.072934        -0.145841
 C         1.781835         1.131924        -0.897985
 C         3.187972         0.754368        -0.312877
 C         4.195768         0.566089        -1.387492
 O         3.373829        -0.487144        -1.936332
 C         2.758209        -0.744388        -0.533975
 O         3.116807         1.079682         1.151767
 C         1.711954         0.494232         1.270268
 H        -0.441590        -0.579361        -1.201929
 H        -0.061639        -1.812480        -0.128749
 H        -0.641249        -0.312307         0.561725
 H         1.633501         1.009059        -2.011994
 H         1.355928         2.174269        -0.494006
 H         4.266889         1.334148        -2.119143
 H         5.226407         0.184254        -0.988110
 H         3.249949        -1.652937        -0.150229
 H         1.679060        -0.314298         2.055756
 H         0.967398         1.307955         1.418932
