19
Iteration:   180
 C        -0.024575        -0.700372        -0.192962
 C         1.405776        -0.183518        -0.070002
 C         1.862852         1.386163        -0.522341
 C         3.209971         0.608089        -0.271811
 C         4.095013         0.882496        -1.435146
 O         3.039288         0.122549        -2.183903
 C         2.671333        -0.630683        -0.875658
 O         3.246509         0.581061         1.202571
 C         1.974131        -0.135270         1.349652
 H        -0.597461         0.249129        -0.291399
 H        -0.151577        -1.442408        -0.978462
 H        -0.439443        -1.207779         0.674950
 H         1.576625         1.632145        -1.579491
 H         1.615642         2.171424         0.317733
 H         4.142966         1.953059        -1.870159
 H         5.064196         0.422222        -1.611108
 H         3.142436        -1.589601        -0.772422
 H         2.187708        -1.096875         1.779128
 H         1.303501         0.351109         2.075708
