19
Iteration:   598
 C        -0.032879        -0.710494        -0.249369
 C         1.360570        -0.144717        -0.085412
 C         1.741578         1.205554        -0.641254
 C         3.138829         0.744840        -0.282088
 C         4.139397         0.656216        -1.375890
 O         3.255184        -0.170681        -2.167380
 C         2.640261        -0.664448        -0.728664
 O         3.140646         0.959110         1.128018
 C         2.041141         0.093616         1.436987
 H        -0.318192        -0.259596        -1.190428
 H        -0.115038        -1.770911        -0.383540
 H        -0.855813        -0.205015         0.386767
 H         1.529282         1.238955        -1.739176
 H         1.475078         2.167590        -0.101086
 H         4.674403         1.439915        -2.064435
 H         4.999821         0.042457        -0.907757
 H         3.048027        -1.652598        -0.502385
 H         2.325787        -0.878012         1.934810
 H         1.307986         0.525461         2.129676
