19
Iteration:  4897
 C        -0.031546        -0.699834        -0.241944
 C         1.361348        -0.101163        -0.165675
 C         1.647237         1.230462        -0.949646
 C         3.122622         0.834950        -0.367609
 C         4.267635         0.532996        -1.212201
 O         3.402353        -0.689448        -1.750340
 C         2.659102        -0.630931        -0.566158
 O         3.099074         1.216126         0.946112
 C         1.901521         0.357275         1.261817
 H        -0.934540        -0.043971        -0.039202
 H        -0.367280        -1.031148        -1.293030
 H        -0.211777        -1.623750         0.368142
 H         1.458078         1.024040        -1.974039
 H         1.261721         2.110316        -0.437061
 H         4.720189         1.116451        -2.075219
 H         5.169298         0.121617        -0.677355
 H         3.113117        -1.417610         0.081131
 H         2.230500        -0.548599         1.824727
 H         1.159130         1.006281         1.814175
