19
Iteration:  4279charge 0 multiplicity 1
 C        -0.059526        -0.768252        -0.191564
 C         1.275294        -0.110707        -0.146094
 C         1.751130         1.181409        -0.907192
 C         3.149802         0.734101        -0.364606
 C         4.299091         0.560422        -1.353093
 O         3.498806        -0.599090        -1.898897
 C         2.732413        -0.683536        -0.499739
 O         3.055238         1.078745         1.032710
 C         1.718705         0.562139         1.323586
 H        -0.809435         0.027090         0.093369
 H        -0.273240        -1.096152        -1.256148
 H        -0.288476        -1.654897         0.340140
 H         1.666307         0.910425        -1.889162
 H         1.338095         2.168477        -0.653343
 H         4.338450         1.344625        -2.134687
 H         5.309393         0.445355        -0.816048
 H         3.135681        -1.549630        -0.109945
 H         1.849478        -0.102030         2.211008
 H         1.223957         1.540894         1.566657
