19
Iteration:  1878charge 0 multiplicity 1
 C        -0.059011        -0.854889        -0.304771
 C         1.308238        -0.009816        -0.179368
 C         1.745047         1.223594        -0.944284
 C         3.159448         0.817720        -0.350960
 C         4.291354         0.456281        -1.371928
 O         3.380707        -0.644376        -1.784805
 C         2.676463        -0.601791        -0.443449
 O         3.140686         1.162764         1.075905
 C         1.789225         0.499254         1.254038
 H        -0.591333        -0.858777         0.688471
 H        -0.650258        -0.406541        -1.116969
 H         0.078202        -1.923992        -0.531861
 H         1.664638         1.218800        -2.016264
 H         1.348175         2.088167        -0.440730
 H         4.441004         1.113015        -2.107422
 H         5.336170         0.266528        -0.926613
 H         2.875472        -1.548751         0.101630
 H         1.889888        -0.358924         1.908000
 H         1.093955         1.177085         1.704193
