19
Iteration:  3781
 C         0.012080        -0.749296        -0.143227
 C         1.239745         0.021185        -0.150225
 C         1.752864         1.241646        -0.899874
 C         3.112091         0.826727        -0.433133
 C         4.306600         0.520414        -1.414114
 O         3.523574        -0.740271        -1.791040
 C         2.733221        -0.640099        -0.531931
 O         2.947170         1.172815         1.004408
 C         1.744098         0.360435         1.279895
 H        -0.694635        -0.193124         0.513795
 H        -0.450482        -0.612715        -1.183945
 H         0.111034        -1.789877         0.303871
 H         1.808871         1.305572        -2.060090
 H         1.623569         2.296410        -0.424491
 H         4.506564         1.151078        -2.225702
 H         5.300258         0.325582        -0.881335
 H         3.168459        -1.186829         0.275567
 H         1.963872        -0.649940         1.654024
 H         1.072296         0.879429         1.951317
