19
Iteration:  3118
 C         0.035558        -0.758755        -0.310536
 C         1.347204        -0.109280        -0.195346
 C         1.781170         1.114687        -0.962671
 C         3.158936         0.766440        -0.297733
 C         4.204279         0.464570        -1.365578
 O         3.298615        -0.574759        -1.819044
 C         2.736751        -0.646161        -0.447697
 O         3.055802         1.215437         1.035955
 C         1.852654         0.480397         1.355396
 H        -0.843083        -0.048865        -0.201012
 H        -0.077527        -1.090685        -1.361760
 H        -0.203194        -1.506761         0.436056
 H         1.895845         1.005284        -2.045972
 H         1.355166         2.039968        -0.433099
 H         4.234639         1.393324        -2.047442
 H         5.128321         0.092512        -1.078929
 H         3.237323        -1.462175         0.102019
 H         1.887166        -0.251608         2.161974
 H         1.069543         1.257600         1.519345
