19
Iteration:  4372charge 0 multiplicity 1
 C        -0.062739        -0.704753        -0.253375
 C         1.401543        -0.112645        -0.128124
 C         1.721123         1.076627        -0.971664
 C         3.115612         0.762952        -0.368637
 C         4.159669         0.603476        -1.361003
 O         3.442197        -0.569618        -1.803941
 C         2.782987        -0.726322        -0.500437
 O         3.133822         1.060555         1.081234
 C         1.760889         0.586052         1.297527
 H        -0.775388         0.042221         0.065713
 H        -0.202029        -1.013866        -1.281467
 H        -0.403986        -1.671228         0.233508
 H         1.733926         0.833784        -2.136415
 H         1.334333         2.082802        -0.626022
 H         4.228747         1.321745        -2.208837
 H         5.122421         0.371625        -0.950234
 H         3.329411        -1.501904         0.175720
 H         1.626438        -0.089504         2.142716
 H         1.002460         1.362480         1.411430
