19
Iteration:  4544charge 0 multiplicity 1
 C        -0.057975        -0.684097        -0.253124
 C         1.243518        -0.058539        -0.069076
 C         1.664389         1.140658        -0.931967
 C         3.097292         0.736806        -0.396433
 C         4.384538         0.508287        -1.225117
 O         3.431152        -0.647509        -1.934620
 C         2.747752        -0.641800        -0.564208
 O         3.037837         1.222154         0.962486
 C         1.856866         0.441500         1.404762
 H        -0.877931        -0.062649         0.147708
 H        -0.208835        -0.711573        -1.336270
 H         0.021798        -1.665642         0.351774
 H         1.417637         0.906573        -2.021247
 H         1.435212         2.089760        -0.766417
 H         4.745492         1.252202        -2.024946
 H         5.139485         0.176510        -0.603894
 H         3.233769        -1.373500         0.004358
 H         2.118729        -0.481801         2.063918
 H         0.987137         0.786828         1.984813
