19
Iteration:   155
 C        -0.115282        -0.710287        -0.284335
 C         1.307873        -0.069777        -0.072413
 C         1.725227         1.327170        -0.355144
 C         3.197612         0.758646        -0.243154
 C         4.112254         0.839019        -1.464782
 O         3.132504         0.012467        -2.189383
 C         2.626575        -0.494996        -0.897420
 O         3.328581         0.609160         1.176349
 C         2.116031        -0.220380         1.346789
 H        -0.653540        -0.195210        -1.111886
 H        -0.010874        -1.780920        -0.466757
 H        -0.716595        -0.689282         0.557228
 H         1.492372         1.592978        -1.393647
 H         1.449256         2.050768         0.393578
 H         4.268867         1.741311        -2.041548
 H         4.964997         0.257974        -1.324776
 H         2.941380        -1.545168        -0.742574
 H         2.454132        -1.268591         1.569974
 H         1.543901         0.167040         2.238405
