19
Iteration:  2194
 C         0.017990        -0.763472        -0.299042
 C         1.400732        -0.047623        -0.133322
 C         1.739783         1.215375        -0.952075
 C         3.107990         0.805741        -0.257920
 C         4.200657         0.430014        -1.328586
 O         3.322999        -0.638923        -1.892477
 C         2.719452        -0.703024        -0.527824
 O         3.067077         1.271888         1.043510
 C         1.864472         0.395731         1.338733
 H        -0.560585         0.089956        -0.442272
 H        -0.016486        -1.234993        -1.256711
 H        -0.220281        -1.369288         0.517814
 H         1.815356         1.146607        -2.072697
 H         1.231974         2.227481        -0.515180
 H         4.304505         1.244971        -2.075608
 H         4.953835         0.190318        -0.703578
 H         3.125606        -1.446370         0.171460
 H         2.193067        -0.469149         1.878942
 H         1.071418         0.923111         1.830546
