19
Iteration:  1032charge 0 multiplicity 1
 C        -0.066575        -0.681157        -0.248748
 C         1.362746        -0.050064        -0.122207
 C         1.725148         1.299891        -0.906739
 C         3.073778         0.805361        -0.368850
 C         4.205193         0.650011        -1.315986
 O         3.414897        -0.603217        -1.941742
 C         2.739940        -0.690115        -0.563439
 O         3.079484         1.047136         1.051814
 C         1.890285         0.238853         1.400276
 H        -0.182109        -1.819786        -0.120914
 H        -0.868473        -0.233714         0.561279
 H        -0.467603        -0.483377        -1.258845
 H         1.697653         1.303271        -1.977129
 H         1.286927         2.167416        -0.451129
 H         4.423162         1.241868        -2.220236
 H         5.195219         0.343866        -0.909231
 H         3.184474        -1.504245         0.022481
 H         2.187100        -0.557402         2.052045
 H         1.222994         0.985230         1.875351
