19
Iteration:  2181
 C         0.052882        -0.754100        -0.306114
 C         1.317995        -0.032911        -0.145439
 C         1.760742         1.231048        -0.918618
 C         3.184312         0.832821        -0.378151
 C         4.239664         0.477829        -1.353847
 O         3.328050        -0.648368        -1.776862
 C         2.658247        -0.638395        -0.497768
 O         3.056985         1.213229         1.079907
 C         1.833112         0.397518         1.279661
 H        -0.841964        -0.274247        -0.150259
 H         0.111216        -1.295476        -1.265826
 H        -0.076928        -1.583480         0.412378
 H         1.556764         1.103672        -1.973245
 H         1.323719         2.217174        -0.558999
 H         4.479945         1.112751        -2.220758
 H         5.126958         0.011403        -1.154480
 H         3.022423        -1.598848        -0.012639
 H         2.142964        -0.437165         1.845537
 H         1.182414         0.970254         1.907499
