19
Iteration:  1852charge 0 multiplicity 1
 C         0.043933        -0.778866        -0.305625
 C         1.332634         0.049238        -0.071535
 C         1.723399         1.325639        -0.914577
 C         3.029060         0.824723        -0.427190
 C         4.215978         0.396063        -1.337105
 O         3.447132        -0.744530        -1.808417
 C         2.743076        -0.583813        -0.490816
 O         3.035688         1.156267         0.993698
 C         1.822440         0.387457         1.330023
 H        -0.683633        -0.809707         0.520343
 H        -0.384462        -0.210881        -1.242377
 H         0.250752        -1.896269        -0.579007
 H         1.488443         1.261331        -1.977208
 H         1.489044         2.276563        -0.482352
 H         4.618504         1.156203        -2.217478
 H         5.123346         0.243487        -0.693096
 H         3.176945        -1.367159         0.186488
 H         1.842956        -0.470791         2.085885
 H         1.179221         1.203267         1.864589
