19
Iteration:  2269charge 0 multiplicity 1
 C        -0.018755        -0.765848        -0.122188
 C         1.316407        -0.048644        -0.163718
 C         1.777953         1.295206        -0.961209
 C         3.132436         0.755557        -0.318579
 C         4.280329         0.558821        -1.402850
 O         3.462851        -0.635465        -1.782912
 C         2.704528        -0.646219        -0.504770
 O         3.060299         1.079849         0.999971
 C         1.728782         0.420273         1.214417
 H        -0.759810        -0.066641         0.296203
 H        -0.217583        -1.107483        -1.178248
 H         0.033395        -1.662000         0.603453
 H         1.635696         1.241960        -2.055236
 H         1.311758         2.283023        -0.632912
 H         4.340913         1.445185        -2.158464
 H         5.277787         0.155498        -1.049331
 H         2.914937        -1.553805         0.144097
 H         1.763967        -0.415337         1.904059
 H         1.026898         1.158643         1.589066
