19
Iteration:  1080charge 0 multiplicity 1
 C         0.001038        -0.766725        -0.295727
 C         1.337353        -0.053853        -0.192124
 C         1.768555         1.300076        -0.854954
 C         3.121161         0.755169        -0.317910
 C         4.144039         0.537772        -1.357293
 O         3.358186        -0.581650        -1.938810
 C         2.734875        -0.663481        -0.569082
 O         3.103290         1.061635         1.108162
 C         1.835036         0.415630         1.377067
 H        -0.042732        -1.829684        -0.530861
 H        -0.386010        -0.777540         0.715174
 H        -0.796997        -0.320697        -0.963727
 H         1.640902         1.401938        -1.931970
 H         1.614202         2.239217        -0.351399
 H         4.373444         1.534773        -2.021534
 H         5.102869         0.112499        -1.132137
 H         3.358819        -1.400753         0.030969
 H         2.200525        -0.467581         1.949898
 H         0.999097         0.952715         1.873160
