19
Iteration:   404
 C        -0.078839        -0.654774        -0.189165
 C         1.287704        -0.119330        -0.066468
 C         1.669757         1.266685        -0.555855
 C         3.121012         0.757586        -0.236610
 C         4.108042         0.859527        -1.466350
 O         3.329748        -0.160347        -2.176134
 C         2.678889        -0.572170        -0.790252
 O         3.342586         0.622025         1.122052
 C         1.924578        -0.009057         1.386252
 H        -0.788456         0.211064        -0.331895
 H        -0.079112        -1.254036        -1.131670
 H        -0.410932        -1.282543         0.692509
 H         1.504197         1.293437        -1.662432
 H         1.249791         2.207653        -0.103914
 H         4.211075         1.730635        -2.066089
 H         5.098428         0.419700        -1.151001
 H         3.204438        -1.453299        -0.337737
 H         2.002460        -0.972582         1.861157
 H         1.476790         0.789226         1.940874
