19
Iteration:  4224
 C        -0.091044        -0.671415        -0.220364
 C         1.311686        -0.028165        -0.152557
 C         1.781714         1.268446        -0.917944
 C         3.126984         0.838839        -0.453719
 C         4.270634         0.498493        -1.450047
 O         3.493705        -0.721976        -1.825819
 C         2.779421        -0.639405        -0.519091
 O         2.964241         1.180320         1.116104
 C         1.802265         0.311044         1.360664
 H        -1.041339        -0.092555        -0.391320
 H        -0.003716        -1.223643        -1.216274
 H        -0.204779        -1.356854         0.600237
 H         1.622589         1.026187        -1.956540
 H         1.239919         2.160382        -0.615444
 H         4.395986         1.352312        -2.126577
 H         5.295413         0.253847        -0.963519
 H         3.246828        -1.329284         0.115992
 H         2.026889        -0.571564         2.011242
 H         1.070454         0.935054         1.964586
