19
Iteration:  1577charge 0 multiplicity 1
 C        -0.148677        -0.798897        -0.262307
 C         1.359906        -0.108422        -0.202048
 C         1.787036         1.238988        -0.870962
 C         3.168972         0.820778        -0.311137
 C         4.128633         0.635204        -1.492820
 O         3.417242        -0.598538        -1.848425
 C         2.715201        -0.632857        -0.446512
 O         3.172724         1.022336         1.132049
 C         1.805782         0.421007         1.286354
 H        -0.049830        -1.688062        -0.971582
 H        -0.527330        -1.007276         0.760556
 H        -0.649546         0.012162        -0.960082
 H         1.688207         1.402143        -1.910448
 H         1.464805         2.112554        -0.407124
 H         4.405330         1.336941        -2.338242
 H         5.151708         0.186778        -1.062026
 H         3.105076        -1.540967         0.085279
 H         1.818540        -0.311349         2.087003
 H         1.109540         1.223597         1.605777
