19
Iteration:    61
 C        -0.079782        -0.681314        -0.172376
 C         1.396031        -0.145958        -0.085263
 C         1.697465         1.361930        -0.394246
 C         3.199265         0.733492        -0.262027
 C         4.101713         0.955302        -1.416506
 O         3.048970         0.153917        -2.198946
 C         2.715795        -0.558251        -0.882347
 O         3.355769         0.429241         1.098004
 C         2.020237        -0.262753         1.313709
 H        -0.241079        -1.716141         0.263768
 H        -0.737722         0.127547         0.200017
 H        -0.326867        -0.762806        -1.289479
 H         1.374471         1.659352        -1.422599
 H         1.411706         2.012766         0.476657
 H         4.209754         2.006554        -1.828455
 H         5.010631         0.317344        -1.210987
 H         3.335024        -1.485718        -0.756929
 H         2.177235        -1.249433         1.762095
 H         1.456688         0.353132         2.028430
