19
Iteration:  2885
 C        -0.063282        -0.702123        -0.221150
 C         1.364785        -0.062174        -0.144355
 C         1.766570         1.232997        -0.922707
 C         3.145511         0.830307        -0.328832
 C         4.155284         0.525126        -1.378743
 O         3.507561        -0.692724        -1.790714
 C         2.774961        -0.659144        -0.512532
 O         3.020333         1.164668         0.990580
 C         1.759583         0.370279         1.276151
 H        -0.768085        -0.404605         0.599500
 H        -0.358056        -0.444924        -1.243704
 H         0.060729        -1.776200         0.014364
 H         1.758813         1.137780        -2.082603
 H         1.138517         2.116805        -0.560451
 H         4.152956         1.444884        -2.122489
 H         5.189737         0.282265        -1.086251
 H         3.128271        -1.400128         0.247964
 H         2.168008        -0.436707         1.824750
 H         0.999439         0.926092         1.826031
