19
Iteration:  3478
 C        -0.030436        -0.722818        -0.126102
 C         1.272625        -0.031560        -0.257168
 C         1.660536         1.248287        -0.986012
 C         3.131099         0.817508        -0.418058
 C         4.275914         0.484296        -1.390592
 O         3.542836        -0.622244        -1.749209
 C         2.674754        -0.619380        -0.463389
 O         3.168718         1.002471         1.055272
 C         1.670358         0.439173         1.249779
 H        -0.834648        -0.017691         0.311434
 H        -0.406899        -1.134945        -1.102048
 H         0.352377        -1.422948         0.647510
 H         1.565093         1.122732        -2.121264
 H         1.347160         2.197259        -0.644470
 H         4.539881         1.142878        -2.274385
 H         5.240024         0.400746        -0.924775
 H         3.142361        -1.263234         0.355547
 H         1.561551        -0.411805         1.886510
 H         1.010030         1.332001         1.496443
