19
Iteration:  4589charge 0 multiplicity 1
 C        -0.038000        -0.726441        -0.129119
 C         1.387404        -0.052286        -0.217113
 C         1.767513         1.215703        -0.990201
 C         3.200517         0.749230        -0.291869
 C         4.253244         0.600512        -1.342793
 O         3.398965        -0.689461        -1.849937
 C         2.753993        -0.639709        -0.503198
 O         3.034970         1.083167         1.057841
 C         1.703690         0.451467         1.195237
 H        -0.767530         0.090304        -0.069729
 H        -0.291138        -1.364054        -0.986775
 H        -0.009746        -1.213337         0.914547
 H         1.838929         1.189273        -2.066200
 H         1.312289         2.096417        -0.620184
 H         4.273124         1.510424        -2.043064
 H         5.195168         0.156629        -1.205035
 H         3.206130        -1.289296         0.203134
 H         1.608701        -0.433131         1.947640
 H         1.106958         1.190727         1.773887
