19
Iteration:  1475
 C        -0.072187        -0.776492        -0.207155
 C         1.250943         0.004279        -0.082893
 C         1.727929         1.266325        -0.944068
 C         3.132812         0.815290        -0.350049
 C         4.249033         0.600597        -1.377583
 O         3.459028        -0.690909        -1.907104
 C         2.791890        -0.610919        -0.546754
 O         3.086471         1.028567         1.099816
 C         1.771356         0.423973         1.317706
 H        -0.478901        -0.558659        -1.216009
 H        -0.084689        -1.892389        -0.181910
 H        -0.738721        -0.434061         0.605367
 H         1.905464         1.086911        -1.985085
 H         1.446051         2.193097        -0.597040
 H         4.377620         1.328724        -2.331929
 H         5.202402         0.363037        -0.976969
 H         3.195518        -1.434590        -0.044191
 H         1.821054        -0.451466         1.970098
 H         1.160380         1.138558         1.795334
