19
Iteration:  3920charge 0 multiplicity 1
 C        -0.070129        -0.742529        -0.194375
 C         1.327265        -0.098491        -0.138434
 C         1.760395         1.148571        -0.903812
 C         3.165496         0.774321        -0.339636
 C         4.256439         0.621074        -1.389853
 O         3.485284        -0.637892        -1.852222
 C         2.701871        -0.659960        -0.517793
 O         3.068761         1.039746         1.058400
 C         1.720200         0.535819         1.257244
 H        -0.806562         0.038331        -0.036964
 H        -0.158533        -0.997185        -1.267127
 H        -0.182055        -1.534533         0.491550
 H         1.755072         1.068028        -2.039958
 H         1.267259         1.949448        -0.440059
 H         4.435237         1.463153        -2.208804
 H         5.202697         0.221299        -0.928880
 H         3.275986        -1.432513         0.063702
 H         1.799679        -0.097989         2.206078
 H         0.965445         1.360980         1.411703
