19
Iteration:  3116
 C         0.028444        -0.751270        -0.319203
 C         1.338024        -0.119496        -0.196209
 C         1.755281         1.130420        -0.956198
 C         3.149460         0.778578        -0.291807
 C         4.213053         0.455111        -1.355760
 O         3.297912        -0.582507        -1.817781
 C         2.743433        -0.650624        -0.473341
 O         3.052775         1.209696         1.036852
 C         1.872298         0.508801         1.363089
 H        -0.792417        -0.060747        -0.172374
 H        -0.007045        -1.125931        -1.364338
 H        -0.113774        -1.570617         0.376164
 H         1.911112         1.003302        -1.999029
 H         1.327591         2.054232        -0.417898
 H         4.312084         1.309867        -2.094413
 H         5.110589         0.054193        -1.083666
 H         3.262834        -1.432820         0.120009
 H         1.917010        -0.289062         2.156352
 H         1.012752         1.228115         1.558794
