19
Iteration:  1228
 C        -0.051541        -0.831838        -0.190345
 C         1.336313        -0.160808        -0.119495
 C         1.882728         1.202117        -0.871750
 C         3.186657         0.789958        -0.248418
 C         4.202543         0.588400        -1.398024
 O         3.363795        -0.579517        -1.932632
 C         2.752720        -0.605691        -0.651419
 O         3.113895         1.058956         1.092137
 C         1.663338         0.492809         1.310086
 H        -0.541423        -0.399815        -1.084466
 H         0.015675        -1.947063        -0.156512
 H        -0.787475        -0.497943         0.533460
 H         1.969590         1.139880        -2.012479
 H         1.462819         2.314545        -0.557523
 H         4.392570         1.394781        -2.046294
 H         5.278003         0.103877        -1.104606
 H         3.010586        -1.477214        -0.044151
 H         1.601300        -0.019953         2.315192
 H         1.039255         1.433969         1.466773
