19
Iteration:   359charge 0 multiplicity 1
 C         0.041522        -0.645424        -0.291877
 C         1.405898        -0.047770        -0.065498
 C         1.780157         1.307499        -0.528523
 C         3.193506         0.801269        -0.242488
 C         4.082201         0.683190        -1.496154
 O         3.099891        -0.136117        -2.137830
 C         2.694975        -0.578301        -0.785386
 O         3.144147         0.807562         1.224343
 C         2.018105        -0.151621         1.350218
 H        -0.422470        -0.334570        -1.228604
 H         0.234491        -1.742832        -0.260227
 H        -0.613086        -0.318663         0.624284
 H         1.578945         1.502582        -1.624299
 H         1.330403         2.171452         0.120015
 H         4.232836         1.593268        -2.001190
 H         5.032726         0.116101        -1.294444
 H         3.135002        -1.611518        -0.658140
 H         2.466231        -1.165169         1.397417
 H         1.271824         0.050998         2.086531
