19
Iteration:  1488charge 0 multiplicity 1
 C        -0.003632        -0.703709        -0.205785
 C         1.339694        -0.050217        -0.088748
 C         1.756532         1.238718        -0.875879
 C         3.143804         0.829359        -0.385632
 C         4.260166         0.508932        -1.375657
 O         3.423120        -0.560302        -1.844796
 C         2.749054        -0.635673        -0.560514
 O         3.020884         1.051669         0.980565
 C         1.752192         0.347077         1.329360
 H        -0.475194        -0.575826        -1.249740
 H         0.210793        -1.753691         0.038206
 H        -0.876291        -0.315533         0.455983
 H         1.467383         0.980138        -1.872170
 H         1.351025         2.160692        -0.721482
 H         4.578125         1.308082        -2.117240
 H         5.107539         0.021727        -0.847099
 H         3.173070        -1.333182         0.185604
 H         2.055167        -0.422166         2.011343
 H         1.085493         1.076027         1.725185
