19
Iteration:  2399charge 0 multiplicity 1
 C        -0.130050        -0.727560        -0.162301
 C         1.316117        -0.105940        -0.134078
 C         1.746501         1.128743        -0.965613
 C         3.142025         0.731583        -0.318143
 C         4.276724         0.489231        -1.326034
 O         3.451125        -0.514149        -1.877644
 C         2.726085        -0.691844        -0.628359
 O         3.048688         1.209918         1.007391
 C         1.816133         0.434532         1.352149
 H        -0.643035         0.211768        -0.423887
 H        -0.469796        -1.292748        -1.061057
 H        -0.218518        -1.214270         0.865604
 H         1.717937         0.808719        -2.003708
 H         1.296410         2.036052        -0.623389
 H         4.755616         1.225134        -1.872880
 H         5.173444         0.063875        -0.801817
 H         3.191296        -1.323600         0.161400
 H         2.201506        -0.496690         2.003843
 H         1.028905         1.169229         1.692718
