19
Iteration:  3323charge 0 multiplicity 1
 C        -0.051176        -0.612564        -0.165884
 C         1.375852        -0.154313        -0.189786
 C         1.771886         1.067678        -1.050028
 C         3.170338         0.837755        -0.381995
 C         4.275945         0.400941        -1.344335
 O         3.411256        -0.560765        -1.911531
 C         2.770502        -0.633793        -0.419268
 O         2.973763         1.250133         1.075830
 C         1.779314         0.393189         1.321572
 H        -0.661719         0.305458        -0.104404
 H        -0.264016        -1.372492        -0.965584
 H        -0.405590        -1.232916         0.693588
 H         1.635499         1.183736        -2.107027
 H         1.330670         1.917587        -0.507288
 H         4.516264         1.231930        -2.096890
 H         5.164769        -0.129499        -0.817383
 H         3.158502        -1.524845         0.152127
 H         2.089871        -0.462252         1.911286
 H         0.918893         0.893963         1.794119
