19
Iteration:  2992
 C        -0.080507        -0.698882        -0.223474
 C         1.321644        -0.068160        -0.143918
 C         1.633050         1.175115        -0.941131
 C         3.112409         0.807731        -0.327897
 C         4.241880         0.590209        -1.337353
 O         3.472661        -0.639173        -1.777751
 C         2.768956        -0.673285        -0.580101
 O         3.070079         1.126531         1.003598
 C         1.883366         0.391644         1.276027
 H        -0.674303         0.181341        -0.339522
 H        -0.222095        -1.361168        -1.087303
 H        -0.346240        -1.404243         0.637630
 H         1.611172         1.011936        -2.096888
 H         1.226976         2.171883        -0.569980
 H         4.381457         1.302937        -2.075920
 H         5.192662         0.306498        -0.871453
 H         2.989837        -1.584896         0.017999
 H         2.111317        -0.408622         2.066932
 H         1.233375         1.114753         1.867493
