19
Iteration:  1812charge 0 multiplicity 1
 C        -0.141428        -0.731748        -0.218991
 C         1.305159        -0.135537        -0.133110
 C         1.889062         1.162384        -1.010626
 C         3.223800         0.789059        -0.337628
 C         4.172576         0.546103        -1.353409
 O         3.398382        -0.583974        -1.879376
 C         2.769147        -0.715156        -0.442666
 O         3.072796         1.167570         1.073883
 C         1.745908         0.477790         1.288866
 H        -0.822664        -0.166254         0.417282
 H        -0.363850        -0.777887        -1.296242
 H        -0.306282        -1.756546         0.159279
 H         1.936055         1.103478        -2.107653
 H         1.586929         2.158042        -0.676507
 H         4.269918         1.228033        -2.086701
 H         5.224384         0.299869        -0.998269
 H         3.248118        -1.541549         0.115627
 H         1.915445        -0.284986         2.007105
 H         0.957930         1.107286         1.675055
