19
Iteration:  2955
 C         0.063109        -0.854270        -0.200105
 C         1.320405        -0.027751        -0.181158
 C         1.779163         1.352613        -0.931340
 C         3.221527         0.861790        -0.279452
 C         4.251688         0.484433        -1.436688
 O         3.351936        -0.691869        -1.813532
 C         2.729564        -0.583822        -0.576491
 O         2.982342         1.118372         1.093939
 C         1.763124         0.437127         1.307542
 H        -0.973975        -0.363563        -0.156529
 H         0.165268        -1.392114        -1.161409
 H        -0.059137        -1.461949         0.711634
 H         1.654039         1.243747        -1.954867
 H         1.387614         2.280202        -0.618075
 H         4.472693         1.169871        -2.336026
 H         5.236224         0.019840        -1.066163
 H         2.967934        -1.506683        -0.048613
 H         2.057197        -0.459104         1.865757
 H         0.952696         1.029403         1.683711
