19
Iteration:   135
 C         0.055827        -0.674862        -0.238305
 C         1.386554        -0.065015        -0.120499
 C         1.585484         1.496196        -0.351576
 C         3.071366         0.858412        -0.245058
 C         4.059317         0.842418        -1.406410
 O         3.145737        -0.089725        -2.172343
 C         2.607841        -0.492834        -0.814704
 O         3.377422         0.472482         1.102673
 C         2.087215        -0.302322         1.255454
 H        -0.144768        -0.657749        -1.358844
 H         0.042503        -1.666918         0.225362
 H        -0.639400        -0.042301         0.188676
 H         1.290799         1.851806        -1.390495
 H         1.317752         2.226303         0.490495
 H         4.299923         1.849155        -1.917216
 H         4.995641         0.374579        -1.213498
 H         3.101942        -1.396296        -0.650739
 H         2.316014        -1.315848         1.488916
 H         1.558630         0.128167         2.126145
