19
Iteration:  3973
 C        -0.064302        -0.747577        -0.273045
 C         1.296556         0.007605        -0.092480
 C         1.745148         1.306316        -0.970185
 C         3.104335         0.817234        -0.403816
 C         4.268098         0.469385        -1.357350
 O         3.462831        -0.670207        -1.793545
 C         2.776575        -0.650519        -0.520554
 O         3.003816         1.181364         1.022625
 C         1.804354         0.319643         1.364355
 H        -0.732947        -0.243525         0.417943
 H        -0.421697        -0.604767        -1.278125
 H         0.040967        -1.742623         0.022645
 H         1.553575         0.914283        -2.069086
 H         1.354148         2.306179        -0.724841
 H         4.605901         1.046627        -2.266430
 H         5.184463         0.309055        -0.856274
 H         3.268798        -1.478134         0.084549
 H         2.236229        -0.443699         1.973572
 H         1.027172         0.916482         1.898560
