19
Iteration:   314
 C        -0.077404        -0.786041        -0.255173
 C         1.283647        -0.051401        -0.139058
 C         1.714083         1.398371        -0.439103
 C         3.146498         0.712111        -0.306582
 C         4.034058         0.901670        -1.412477
 O         3.265125        -0.159000        -2.133163
 C         2.638714        -0.622216        -0.847954
 O         3.394025         0.523042         1.149038
 C         1.967029         0.100014         1.338644
 H         0.123210        -1.588653        -0.950603
 H        -0.306012        -1.342369         0.691813
 H        -1.009550        -0.118012        -0.581554
 H         1.534171         1.747700        -1.512834
 H         1.599978         2.247759         0.414483
 H         4.072101         1.785816        -2.008151
 H         5.050840         0.464959        -1.179795
 H         3.053095        -1.599873        -0.455713
 H         2.055846        -0.787815         2.004238
 H         1.558103         0.951464         1.884499
