19
Iteration:  3147charge 0 multiplicity 1
 C        -0.062674        -0.665980        -0.158946
 C         1.302839        -0.035545        -0.167627
 C         1.804361         1.125308        -0.913028
 C         3.141990         0.734251        -0.313255
 C         4.224082         0.612938        -1.501176
 O         3.487834        -0.676528        -1.796956
 C         2.830426        -0.706540        -0.550084
 O         3.022387         1.113940         1.081235
 C         1.694704         0.492716         1.300900
 H        -0.941839        -0.121447        -0.366427
 H        -0.103364        -1.311681        -1.052429
 H        -0.298912        -1.228598         0.744677
 H         1.924007         1.078959        -1.974903
 H         1.434665         2.137732        -0.652799
 H         4.034979         1.395884        -2.226474
 H         5.305508         0.377378        -1.313067
 H         3.283835        -1.531065         0.021229
 H         1.804777        -0.306831         2.106613
 H         0.922141         1.242353         1.637390
