19
Iteration:   782
 C        -0.056158        -0.701882        -0.300874
 C         1.393817        -0.097249        -0.117773
 C         1.780022         1.215253        -0.770778
 C         3.161693         0.726019        -0.254441
 C         4.159003         0.739478        -1.431244
 O         3.209821        -0.445190        -2.052826
 C         2.803555        -0.602533        -0.597972
 O         3.153570         0.909781         1.173900
 C         1.866771         0.256439         1.375280
 H        -0.011404        -1.734216        -0.693606
 H        -0.644148        -0.766111         0.628947
 H        -0.655061        -0.155475        -1.125854
 H         1.900440         1.336032        -1.828890
 H         1.459856         2.061439        -0.223451
 H         4.245298         1.588643        -2.226816
 H         5.091378         0.307142        -1.222811
 H         3.203099        -1.596796        -0.207923
 H         1.855368        -0.574792         2.160328
 H         1.190448         1.093059         1.806741
