19
Iteration:  4812
 C        -0.033535        -0.782137        -0.342403
 C         1.316855         0.004277        -0.087381
 C         1.730616         1.239630        -0.848094
 C         3.150782         0.828586        -0.356111
 C         4.267716         0.558020        -1.485420
 O         3.439014        -0.718196        -1.776997
 C         2.712662        -0.616548        -0.449076
 O         3.112533         1.037246         0.997659
 C         1.701620         0.539232         1.371949
 H        -0.932199        -0.179760         0.018702
 H        -0.072163        -1.196523        -1.368968
 H         0.093433        -1.696184         0.201823
 H         1.642598         0.920128        -1.924103
 H         1.319035         2.225263        -0.700528
 H         4.368898         1.097901        -2.361789
 H         5.242633         0.182429        -1.081659
 H         3.154907        -1.327058         0.225177
 H         1.909926        -0.328128         2.077798
 H         1.043406         1.364416         1.575942
