19
Iteration:  2520
 C        -0.058369        -0.719019        -0.227451
 C         1.290904        -0.041989        -0.167390
 C         1.745366         1.136647        -0.955922
 C         3.225474         0.788582        -0.343975
 C         4.323701         0.484660        -1.340594
 O         3.362642        -0.560333        -1.782576
 C         2.747058        -0.620917        -0.466016
 O         2.990126         1.226265         0.944668
 C         1.833803         0.362704         1.314783
 H        -0.803312        -0.187830         0.352287
 H        -0.489786        -0.677917        -1.296422
 H         0.160550        -1.832603        -0.014326
 H         1.666692         1.011357        -2.083794
 H         1.200519         2.015385        -0.528734
 H         4.786438         0.990354        -2.141819
 H         5.094166        -0.214759        -0.850133
 H         3.076345        -1.528594         0.088257
 H         2.080937        -0.477099         2.107895
 H         1.040494         0.990784         1.840079
