19
Iteration:  3918
 C        -0.047881        -0.749610        -0.204562
 C         1.307850        -0.079073        -0.127934
 C         1.755343         1.161109        -0.897833
 C         3.152941         0.759634        -0.335888
 C         4.273122         0.613760        -1.405984
 O         3.495137        -0.638805        -1.855101
 C         2.700796        -0.647577        -0.518581
 O         3.070086         1.031337         1.066508
 C         1.733494         0.534334         1.255061
 H        -0.797544         0.027386        -0.060687
 H        -0.182020        -1.054961        -1.221105
 H        -0.215758        -1.518212         0.487076
 H         1.710302         1.030577        -2.039391
 H         1.172362         2.020756        -0.490165
 H         4.409210         1.416785        -2.228297
 H         5.134957         0.238509        -0.875699
 H         3.235535        -1.415214         0.089058
 H         1.806429        -0.059564         2.174996
 H         0.934950         1.336832         1.440457
