19
Iteration:   334charge 0 multiplicity 1
 C        -0.031625        -0.825757        -0.275039
 C         1.310015        -0.043004        -0.078745
 C         1.723224         1.436368        -0.476203
 C         3.187438         0.845878        -0.331048
 C         4.141837         0.782542        -1.489325
 O         3.199463        -0.206278        -2.078703
 C         2.612732        -0.457708        -0.756223
 O         3.363161         0.575635         1.116076
 C         1.906090        -0.075522         1.362624
 H        -0.172401        -1.084289        -1.315543
 H        -0.111157        -1.672137         0.426612
 H        -0.786268        -0.040429        -0.016693
 H         1.719654         1.789011        -1.536396
 H         1.281314         2.286638         0.224529
 H         4.147349         1.722081        -2.064919
 H         5.076646         0.386203        -1.337006
 H         3.094051        -1.373517        -0.370968
 H         2.032687        -1.116349         1.801498
 H         1.277077         0.656800         1.942585
