19
Iteration:  2072charge 0 multiplicity 1
 C        -0.016951        -0.700849        -0.197605
 C         1.343118        -0.043047        -0.171108
 C         1.661722         1.262146        -0.964510
 C         3.139404         0.778409        -0.374764
 C         4.243054         0.548625        -1.310493
 O         3.449917        -0.681346        -1.754569
 C         2.734473        -0.634822        -0.479127
 O         3.012625         1.174900         0.981384
 C         1.860020         0.294703         1.220481
 H        -0.621781         0.050373         0.236156
 H        -0.251651        -0.827633        -1.300500
 H        -0.025571        -1.670720         0.358524
 H         1.468077         1.316124        -2.058854
 H         1.247287         2.248862        -0.344122
 H         4.545444         1.171164        -2.302777
 H         5.160918         0.255362        -0.754930
 H         3.038069        -1.524380         0.115467
 H         2.064688        -0.559436         1.894759
 H         1.150221         1.001237         1.681315
