19
Iteration:  1634
 C        -0.092470        -0.729983        -0.170943
 C         1.310966        -0.108807        -0.250325
 C         1.692055         1.226350        -0.925085
 C         3.176821         0.822411        -0.298618
 C         4.302583         0.485764        -1.327254
 O         3.348199        -0.534592        -1.837942
 C         2.763684        -0.595904        -0.575424
 O         3.072030         1.149997         1.034844
 C         1.845274         0.310798         1.294854
 H        -0.140997        -1.469088        -0.978588
 H        -0.253532        -1.278009         0.829465
 H        -0.874012         0.099721        -0.291507
 H         1.669410         1.239573        -2.009323
 H         1.344675         2.174066        -0.503643
 H         4.656771         1.038339        -2.160945
 H         5.172587        -0.135730        -0.781463
 H         3.287614        -1.411822         0.034806
 H         2.121976        -0.562383         1.839163
 H         1.056841         0.958576         1.731976
