19
Iteration:    88charge 0 multiplicity 1
 C        -0.034912        -0.696179        -0.192134
 C         1.401291        -0.148896        -0.127532
 C         1.779760         1.282032        -0.444377
 C         3.277445         0.600086        -0.213148
 C         4.047161         0.979265        -1.447427
 O         3.103448         0.171416        -2.243326
 C         2.569485        -0.604994        -0.948100
 O         3.323519         0.531885         1.234502
 C         2.010892        -0.183615         1.378947
 H        -0.126225        -1.703203        -0.541601
 H        -0.441126        -0.504764         0.798117
 H        -0.613406        -0.086902        -0.856445
 H         1.565260         1.572192        -1.459587
 H         1.457901         1.984504         0.284299
 H         3.973461         2.011974        -1.692901
 H         5.056875         0.617459        -1.463363
 H         2.906315        -1.642028        -1.081487
 H         2.178699        -1.209154         1.833299
 H         1.354497         0.397785         2.068633
