19
Iteration:  2519charge 0 multiplicity 1
 C        -0.057238        -0.725896        -0.234032
 C         1.292440        -0.042863        -0.162338
 C         1.748147         1.129478        -0.953284
 C         3.222817         0.796761        -0.337180
 C         4.322250         0.482250        -1.344889
 O         3.361309        -0.558995        -1.782382
 C         2.748201        -0.621243        -0.463648
 O         2.993219         1.225198         0.943067
 C         1.829921         0.364453         1.319665
 H        -0.808992        -0.178186         0.345125
 H        -0.497167        -0.647337        -1.277033
 H         0.151844        -1.818694        -0.029216
 H         1.682681         1.008684        -2.098738
 H         1.171359         2.035846        -0.520565
 H         4.793347         0.994208        -2.148160
 H         5.132677        -0.228277        -0.883140
 H         3.043975        -1.537225         0.077724
 H         2.094116        -0.457453         2.090517
 H         1.037944         1.005306         1.809709
