19
Iteration:  4209
 C        -0.031108        -0.792664        -0.308347
 C         1.263768         0.015197        -0.122423
 C         1.652591         1.345155        -0.852753
 C         3.131163         0.866707        -0.319055
 C         4.228247         0.461547        -1.394569
 O         3.546163        -0.743147        -1.796305
 C         2.660367        -0.578701        -0.505602
 O         3.079820         1.156162         1.013012
 C         1.837567         0.351472         1.255823
 H        -0.850402        -0.078647        -0.177084
 H        -0.116924        -1.385933        -1.202681
 H        -0.210798        -1.593760         0.503315
 H         1.623870         1.333590        -1.995477
 H         1.449246         2.330239        -0.437846
 H         4.413539         0.979997        -2.348816
 H         5.252886         0.216871        -0.876174
 H         2.986289        -1.391005         0.236946
 H         2.193542        -0.602049         1.815715
 H         1.088374         0.981207         1.807714
