19
Iteration:  4585
 C        -0.038926        -0.710791        -0.126656
 C         1.360568        -0.081519        -0.266317
 C         1.765447         1.185089        -0.980777
 C         3.180459         0.755273        -0.316700
 C         4.285073         0.605794        -1.317161
 O         3.375889        -0.657050        -1.836588
 C         2.757801        -0.651464        -0.522777
 O         3.046659         1.108760         1.060228
 C         1.709186         0.434251         1.211878
 H        -0.729597         0.144299        -0.020579
 H        -0.344933        -1.416376        -0.920049
 H        -0.097129        -1.267331         0.822778
 H         1.807137         1.116276        -2.113954
 H         1.370643         2.107608        -0.537702
 H         4.313152         1.380050        -2.061972
 H         5.278365         0.153885        -1.100083
 H         3.193354        -1.361683         0.243013
 H         1.793335        -0.352566         2.002519
 H         1.173606         1.246018         1.754626
