19
Iteration:  3305
 C        -0.092901        -0.707622        -0.236871
 C         1.359033        -0.084228        -0.149792
 C         1.723169         1.223466        -0.884083
 C         3.118714         0.791330        -0.316709
 C         4.283808         0.510848        -1.344709
 O         3.395631        -0.671958        -1.779135
 C         2.777040        -0.713959        -0.540666
 O         3.024394         1.247371         0.991041
 C         1.843990         0.410082         1.230937
 H        -0.739895         0.160456        -0.027593
 H        -0.239435        -1.111960        -1.226953
 H        -0.204800        -1.425262         0.554129
 H         1.794744         0.803354        -1.975153
 H         1.333195         2.246268        -0.667336
 H         4.517929         1.158902        -2.274706
 H         5.107306         0.077613        -0.838105
 H         3.206977        -1.502862         0.126063
 H         2.050587        -0.426419         1.967951
 H         1.051834         1.078126         1.703576
