19
Iteration:  3109charge 0 multiplicity 1
 C         0.014818        -0.766504        -0.351718
 C         1.351064        -0.125209        -0.161734
 C         1.691564         1.189365        -0.902644
 C         3.128596         0.815586        -0.305930
 C         4.232378         0.452398        -1.343552
 O         3.309645        -0.614153        -1.823318
 C         2.748996        -0.680707        -0.525543
 O         3.064309         1.195825         1.050496
 C         1.858756         0.564260         1.370673
 H        -0.805502        -0.019105        -0.085123
 H         0.050943        -1.195221        -1.359873
 H         0.085751        -1.724648         0.201017
 H         1.741455         1.117006        -2.019717
 H         1.219036         2.156739        -0.636190
 H         4.603862         1.000146        -2.256471
 H         5.183970        -0.074814        -0.947235
 H         3.239549        -1.402419         0.141056
 H         2.101542        -0.252142         2.025866
 H         1.030458         1.123687         1.780578
