19
Iteration:   964
 C         0.018849        -0.773423        -0.235938
 C         1.290710         0.031045        -0.175416
 C         1.628741         1.337665        -0.818862
 C         3.213902         0.792429        -0.273280
 C         4.256674         0.504368        -1.399100
 O         3.356084        -0.514846        -1.928407
 C         2.667580        -0.614233        -0.597861
 O         3.196180         0.974472         1.124315
 C         1.766087         0.301816         1.283396
 H        -0.336697        -1.090612         0.804559
 H        -0.907525        -0.319682        -0.876697
 H         0.390937        -1.725074        -0.732369
 H         1.559001         1.393688        -1.933569
 H         1.199166         2.299872        -0.401120
 H         4.403559         1.301342        -2.068594
 H         5.347280         0.275758        -1.077243
 H         2.996608        -1.486479        -0.085418
 H         2.029415        -0.563528         1.914499
 H         1.127080         1.026454         1.755859
