19
Iteration:  4114charge 0 multiplicity 1
 C        -0.058951        -0.702840        -0.247577
 C         1.238363        -0.008961        -0.154318
 C         1.669512         1.249904        -0.944102
 C         3.122246         0.821989        -0.405453
 C         4.233773         0.574277        -1.355807
 O         3.499241        -0.696797        -1.755575
 C         2.710661        -0.665391        -0.526653
 O         3.130765         1.120905         1.042082
 C         1.840462         0.350565         1.301206
 H        -0.842288        -0.095698         0.337205
 H        -0.385095        -0.891032        -1.301992
 H         0.044912        -1.658861         0.316186
 H         1.767703         1.067327        -2.108856
 H         1.261787         2.229327        -0.726440
 H         4.519918         1.340807        -2.052372
 H         5.212209         0.261482        -0.857258
 H         2.960252        -1.512868         0.069946
 H         2.063623        -0.538468         1.901786
 H         1.002248         0.998320         1.661600
