19
Iteration:  1990charge 0 multiplicity 1
 C        -0.015829        -0.782114        -0.289564
 C         1.325622        -0.086569        -0.138169
 C         1.767910         1.211519        -0.878206
 C         3.179737         0.779837        -0.331121
 C         4.296413         0.486164        -1.464604
 O         3.347226        -0.616544        -1.843822
 C         2.721294        -0.600168        -0.497449
 O         3.045000         1.193348         1.108700
 C         1.792745         0.442865         1.301153
 H        -0.899965         0.009635        -0.426039
 H        -0.009677        -1.454510        -1.142947
 H        -0.208952        -1.354308         0.612352
 H         1.699069         1.221661        -1.996881
 H         1.243571         2.171764        -0.451416
 H         4.622863         1.216572        -2.239234
 H         5.274217        -0.079108        -0.977100
 H         3.018419        -1.509750         0.124805
 H         2.006659        -0.389036         1.971121
 H         0.917671         0.945630         1.694463
