19
Iteration:  3130
 C        -0.032205        -0.749141        -0.273064
 C         1.375340        -0.098991        -0.086239
 C         1.876391         1.132284        -0.974676
 C         3.228536         0.737594        -0.296027
 C         4.177441         0.600337        -1.418361
 O         3.335105        -0.574979        -1.828194
 C         2.736867        -0.731201        -0.383182
 O         3.088280         1.195997         1.038202
 C         1.684366         0.443398         1.249454
 H        -0.674367         0.190786        -0.224255
 H        -0.174287        -1.363856        -1.185526
 H        -0.252581        -1.472660         0.532260
 H         1.624152         0.975341        -2.060068
 H         1.481093         2.176840        -0.809124
 H         4.246668         1.392351        -2.240763
 H         5.203886         0.312103        -1.176920
 H         3.029239        -1.664597         0.120546
 H         1.917920        -0.272963         2.019916
 H         1.019669         1.200607         1.683363
