19
Iteration:  1726charge 0 multiplicity 1
 C         0.043287        -0.717435        -0.316876
 C         1.379094        -0.039286        -0.127420
 C         1.715162         1.181982        -0.870575
 C         3.149940         0.784545        -0.301899
 C         4.241366         0.447478        -1.389702
 O         3.371444        -0.651621        -1.945021
 C         2.686731        -0.658892        -0.507284
 O         3.019750         1.250237         1.121961
 C         1.821806         0.403231         1.330691
 H        -0.582547        -0.092124        -0.997711
 H         0.134651        -1.715543        -0.700095
 H        -0.378665        -0.781056         0.610884
 H         1.855270         1.032604        -1.977115
 H         1.318200         2.260987        -0.616962
 H         4.473657         1.142758        -2.263320
 H         5.118951         0.148477        -0.780976
 H         2.856194        -1.484598         0.152667
 H         2.170901        -0.475981         1.938346
 H         1.077188         0.991542         1.830186
