19
Iteration:   386charge 0 multiplicity 1
 C        -0.203581        -0.670456        -0.260841
 C         1.340333        -0.184989        -0.079713
 C         1.751775         1.278599        -0.580661
 C         3.201565         0.716173        -0.292444
 C         4.165403         0.804204        -1.405730
 O         3.153607        -0.093454        -2.085183
 C         2.735939        -0.658738        -0.794006
 O         3.236763         0.787819         1.136834
 C         2.082171        -0.011200         1.376046
 H        -0.786492         0.161030        -0.743150
 H        -0.249393        -1.533111        -0.938785
 H        -0.570664        -0.898900         0.689512
 H         1.502370         1.497603        -1.588048
 H         1.490258         1.987865         0.117024
 H         4.235435         1.856627        -1.895019
 H         5.163775         0.272685        -1.275794
 H         3.158757        -1.647015        -0.758337
 H         2.422554        -0.977918         1.761381
 H         1.258665         0.313961         2.079500
