19
Iteration:  4937charge 0 multiplicity 1
 C        -0.000837        -0.735579        -0.276239
 C         1.363133        -0.077678        -0.109741
 C         1.860183         1.189098        -0.901209
 C         3.228218         0.792273        -0.287863
 C         4.201995         0.605077        -1.522019
 O         3.372737        -0.744234        -1.832695
 C         2.764339        -0.656855        -0.530107
 O         3.040440         1.113367         1.144314
 C         1.677315         0.506117         1.319522
 H        -0.792966        -0.085714        -0.265460
 H         0.150044        -1.085982        -1.288562
 H        -0.069249        -1.529565         0.489982
 H         1.679269         1.049169        -1.968572
 H         1.275919         2.209000        -0.724762
 H         3.962825         1.462208        -2.233410
 H         5.218540         0.400135        -1.376137
 H         2.931040        -1.573652         0.107412
 H         1.755845        -0.065139         2.210317
 H         0.904842         1.257850         1.591935
