19
Iteration:  2289charge 0 multiplicity 1
 C        -0.028534        -0.802682        -0.227603
 C         1.275235        -0.057918        -0.199009
 C         1.740555         1.189276        -0.913806
 C         3.178787         0.844342        -0.338394
 C         4.281072         0.431385        -1.364614
 O         3.380500        -0.624435        -1.893906
 C         2.745574        -0.622835        -0.535159
 O         3.049425         1.210994         1.087921
 C         1.795480         0.480490         1.348616
 H        -0.848268        -0.312737         0.330160
 H        -0.419490        -0.826697        -1.299351
 H         0.192423        -1.881266         0.124344
 H         1.737834         1.132370        -1.963725
 H         1.477901         2.172409        -0.664148
 H         4.558419         0.991310        -2.265523
 H         5.141601        -0.010355        -0.721963
 H         3.196833        -1.405117         0.143836
 H         2.010353        -0.441118         2.010045
 H         0.967842         1.079490         1.790067
