19
Iteration:  4269charge 0 multiplicity 1
 C        -0.113317        -0.716751        -0.220311
 C         1.327959        -0.179385        -0.139061
 C         1.755893         1.080512        -0.959401
 C         3.141369         0.712412        -0.274430
 C         4.238465         0.667758        -1.306536
 O         3.438098        -0.584008        -1.871130
 C         2.790928        -0.780118        -0.568177
 O         3.111564         1.138953         1.053391
 C         1.743805         0.583797         1.269989
 H        -0.776005         0.146907         0.017660
 H        -0.435293        -1.037283        -1.241058
 H        -0.232623        -1.413620         0.568445
 H         1.682003         1.101064        -2.002044
 H         1.488746         2.046519        -0.494069
 H         4.452708         1.378754        -2.144536
 H         5.181919         0.242687        -0.918923
 H         3.227717        -1.613536        -0.088054
 H         1.781628        -0.094216         2.114731
 H         0.972199         1.360990         1.476404
