19
Iteration:  1752
 C        -0.108160        -0.780682        -0.249501
 C         1.306461        -0.024501        -0.143776
 C         1.783235         1.262357        -0.948774
 C         3.138048         0.810925        -0.369032
 C         4.312465         0.499876        -1.286811
 O         3.375037        -0.608000        -1.797127
 C         2.693943        -0.592770        -0.510618
 O         3.070087         1.106550         0.950552
 C         1.836833         0.371924         1.304855
 H        -0.918391        -0.334246        -0.848554
 H         0.037992        -1.753543        -0.780338
 H        -0.186408        -1.030688         0.846659
 H         1.631276         1.229991        -2.011367
 H         1.589037         2.225728        -0.543645
 H         4.405226         1.144229        -2.224422
 H         5.190944         0.237513        -0.763883
 H         2.931145        -1.345000         0.255427
 H         2.214214        -0.513851         1.925428
 H         1.181160         1.021468         1.959229
