19
Iteration:  1106
 C        -0.005749        -0.778508        -0.227865
 C         1.375984        -0.120481        -0.113423
 C         1.741080         1.194845        -0.914500
 C         3.226057         0.748076        -0.305596
 C         4.279510         0.614679        -1.474867
 O         3.289835        -0.443125        -1.866168
 C         2.687386        -0.681628        -0.566013
 O         3.144567         1.005117         1.171298
 C         1.730283         0.450505         1.316108
 H         0.008993        -1.751790        -0.673429
 H        -0.607309        -0.884358         0.626744
 H        -0.601502        -0.129990        -0.812783
 H         1.674176         0.926299        -1.995713
 H         1.426629         2.304934        -0.682269
 H         4.530490         1.440036        -2.040913
 H         5.269761         0.008656        -1.361212
 H         3.000255        -1.667264        -0.308920
 H         1.751975        -0.137262         2.265007
 H         0.938229         1.190936         1.373023
