19
Iteration:  4924
 C        -0.002253        -0.735716        -0.341460
 C         1.295562        -0.014269        -0.108293
 C         1.758050         1.190083        -0.888365
 C         3.150301         0.789477        -0.366296
 C         4.199417         0.563104        -1.468514
 O         3.460816        -0.703720        -1.807196
 C         2.732133        -0.617215        -0.478277
 O         3.084000         1.103959         1.054879
 C         1.724932         0.471944         1.392534
 H        -0.889629        -0.090757        -0.170456
 H        -0.257906        -1.315446        -1.219214
 H        -0.137528        -1.502306         0.450553
 H         1.727206         0.917486        -1.975513
 H         1.497157         2.217223        -0.525166
 H         4.281463         1.144789        -2.366799
 H         5.216333         0.313725        -1.159466
 H         3.302716        -1.283036         0.157242
 H         1.859537        -0.442189         2.004047
 H         1.141828         1.287692         1.778680
