19
Iteration:  2458charge 0 multiplicity 1
 C        -0.011533        -0.818715        -0.271103
 C         1.323571         0.016850        -0.173130
 C         1.772965         1.267123        -0.954352
 C         3.134284         0.817586        -0.293822
 C         4.182039         0.520292        -1.516042
 O         3.432422        -0.716091        -1.770276
 C         2.703165        -0.599359        -0.476311
 O         3.130137         1.094189         1.140245
 C         1.773973         0.449803         1.267025
 H        -0.887158        -0.370650         0.146888
 H        -0.125292        -1.033874        -1.344979
 H        -0.074883        -1.795125         0.199487
 H         1.722040         1.290164        -2.028366
 H         1.415662         2.183963        -0.578765
 H         4.207923         1.340626        -2.319732
 H         5.109550         0.206200        -1.089597
 H         3.045772        -1.311206         0.302819
 H         1.741701        -0.225264         2.093671
 H         1.062069         1.240259         1.546779
