19
Iteration:  1823charge 0 multiplicity 1
 C        -0.108328        -0.754018        -0.268071
 C         1.330292        -0.067150        -0.184840
 C         1.783176         1.182051        -0.943067
 C         3.143709         0.783529        -0.275028
 C         4.262834         0.484680        -1.405175
 O         3.371081        -0.625703        -1.768031
 C         2.768297        -0.634651        -0.502421
 O         3.087678         1.219848         1.047282
 C         1.809724         0.398163         1.285188
 H        -0.797110        -0.230725         0.419133
 H        -0.642056        -0.503347        -1.202807
 H        -0.028799        -1.834075        -0.124206
 H         1.875363         1.026856        -2.024530
 H         1.305210         2.125814        -0.722874
 H         4.307324         1.190691        -2.108622
 H         5.243789         0.141200        -0.951001
 H         3.165754        -1.533345         0.001311
 H         1.949746        -0.366774         2.008446
 H         1.160265         1.189249         1.591952
