19
Iteration:  1205
 C         0.004843        -0.658052        -0.246615
 C         1.356538        -0.125758        -0.135440
 C         1.701286         1.156567        -0.942415
 C         3.164045         0.704124        -0.294025
 C         4.255532         0.602250        -1.412844
 O         3.367905        -0.474697        -1.891392
 C         2.730730        -0.731644        -0.451345
 O         3.045436         1.049478         1.071007
 C         1.804061         0.444264         1.270276
 H        -0.500110        -0.632960        -1.215563
 H         0.169791        -1.616313         0.147949
 H        -0.667894        -0.188117         0.446310
 H         1.693453         1.104279        -2.077563
 H         1.165871         2.155521        -0.505053
 H         4.476048         1.388597        -2.104465
 H         5.310418         0.165712        -1.046214
 H         3.199281        -1.606421         0.039380
 H         1.990296        -0.378698         2.038912
 H         1.097597         1.131459         1.779395
