19
Iteration:  4806charge 0 multiplicity 1
 C        -0.020764        -0.778891        -0.380366
 C         1.252480         0.038864        -0.049782
 C         1.745349         1.211630        -0.858995
 C         3.171025         0.849873        -0.393062
 C         4.229570         0.464022        -1.484143
 O         3.437422        -0.673284        -1.792986
 C         2.772049        -0.639191        -0.430534
 O         3.095496         1.092943         1.004694
 C         1.716847         0.487126         1.384276
 H        -0.899093        -0.241472        -0.147165
 H        -0.126235        -1.154608        -1.393084
 H         0.050977        -1.673165         0.339197
 H         1.738943         1.033587        -1.983410
 H         1.257598         2.194406        -0.576094
 H         4.464315         1.131638        -2.456762
 H         5.203522         0.201759        -1.068357
 H         3.118222        -1.329258         0.422900
 H         1.936337        -0.364291         2.002771
 H         1.085183         1.306859         1.856019
