19
Iteration:  4690charge 0 multiplicity 1
 C        -0.064368        -0.762222        -0.165193
 C         1.287892        -0.021453        -0.195203
 C         1.851281         1.189780        -0.946840
 C         3.162877         0.792253        -0.370629
 C         4.257079         0.506135        -1.401424
 O         3.439998        -0.647424        -1.780768
 C         2.718066        -0.652381        -0.521339
 O         3.057885         1.182691         1.039338
 C         1.693293         0.431100         1.272456
 H        -0.776495        -0.172069         0.485345
 H        -0.504312        -0.879435        -1.192558
 H         0.181387        -1.714626         0.293128
 H         1.765199         1.112409        -1.990840
 H         1.403523         2.159073        -0.585176
 H         4.490816         1.162883        -2.211654
 H         5.188375         0.154933        -0.908771
 H         3.008551        -1.528132         0.068160
 H         2.233915        -0.306235         1.944507
 H         0.923481         1.071610         1.727119
