19
Iteration:  2687charge 0 multiplicity 1
 C        -0.107155        -0.797503        -0.112621
 C         1.352177        -0.067697        -0.193353
 C         1.836788         1.220880        -0.998481
 C         3.138596         0.827126        -0.351887
 C         4.265169         0.516183        -1.320012
 O         3.451057        -0.597514        -1.899895
 C         2.732605        -0.739883        -0.521325
 O         3.025754         1.093510         1.118100
 C         1.747134         0.548141         1.221802
 H        -0.670307        -0.290612         0.665011
 H        -0.682661        -0.681942        -1.049559
 H         0.005173        -1.927104        -0.030487
 H         1.929690         1.099546        -2.021552
 H         1.537446         2.115446        -0.527116
 H         4.201132         1.230663        -2.170266
 H         5.226556         0.400601        -0.836581
 H         3.235756        -1.593962        -0.034419
 H         1.805902        -0.165816         2.047004
 H         0.954875         1.210564         1.604780
