19
Iteration:  4308charge 0 multiplicity 1
 C         0.077145        -0.838796        -0.237616
 C         1.285771         0.059593        -0.227508
 C         1.730621         1.308676        -0.946333
 C         3.133125         0.853930        -0.387479
 C         4.242891         0.479321        -1.335800
 O         3.359326        -0.713507        -1.756372
 C         2.731221        -0.573579        -0.523228
 O         3.084811         1.124125         1.069904
 C         1.776132         0.398260         1.261122
 H        -0.776510        -0.389774         0.317883
 H        -0.219401        -1.032465        -1.281972
 H         0.294608        -1.865785         0.189139
 H         1.616296         1.205708        -2.101365
 H         1.328764         2.337742        -0.801983
 H         4.450342         1.090344        -2.181098
 H         5.146659         0.258936        -0.680533
 H         3.036665        -1.442571         0.218052
 H         1.864419        -0.562188         1.890204
 H         1.182237         1.005889         2.006774
