19
Iteration:   881
 C        -0.059920        -0.729921        -0.176568
 C         1.338867        -0.080376        -0.176394
 C         1.848067         1.233491        -0.751204
 C         3.184066         0.730154        -0.243207
 C         4.100011         0.666673        -1.431116
 O         3.367044        -0.460699        -2.020155
 C         2.803369        -0.691265        -0.646830
 O         3.164002         0.956988         1.118982
 C         1.682230         0.304935         1.273500
 H        -0.644439         0.106723        -0.532255
 H        -0.178329        -1.511697        -0.846789
 H        -0.516150        -1.014343         0.762617
 H         1.890482         1.268335        -1.824548
 H         1.531378         2.119333        -0.228609
 H         4.174410         1.684923        -2.032054
 H         5.009501         0.366115        -1.012505
 H         3.311720        -1.611163        -0.179384
 H         1.763698        -0.354877         2.195954
 H         1.158138         1.215874         1.761078
