19
Iteration:  3625
 C        -0.061217        -0.671319        -0.163248
 C         1.338035        -0.151136        -0.194602
 C         1.740344         1.070050        -0.958844
 C         3.133480         0.794874        -0.347276
 C         4.324592         0.518124        -1.303865
 O         3.409019        -0.515833        -1.849905
 C         2.710103        -0.675418        -0.445837
 O         3.058486         1.156578         1.010401
 C         1.789619         0.447482         1.239603
 H        -0.719206        -0.152532         0.589326
 H        -0.458372        -0.646211        -1.175946
 H         0.026006        -1.739636         0.060550
 H         1.578456         0.931683        -2.050316
 H         1.221197         2.008140        -0.707168
 H         4.760894         1.253316        -2.035226
 H         5.202584         0.119983        -0.788722
 H         3.103786        -1.602082         0.007334
 H         1.760555        -0.227886         2.106272
 H         1.100461         1.235361         1.343595
