19
Iteration:   733charge 0 multiplicity 1
 C        -0.128068        -0.768745        -0.188451
 C         1.344139        -0.060451        -0.114200
 C         1.778783         1.406896        -0.695045
 C         3.106779         0.797051        -0.369028
 C         4.175402         0.671930        -1.398080
 O         3.413661        -0.462812        -2.071711
 C         2.714044        -0.576404        -0.712615
 O         3.104006         0.897170         1.115662
 C         1.884057         0.158779         1.393838
 H        -0.261051        -1.445598         0.678681
 H        -0.967269        -0.016009        -0.157949
 H        -0.190924        -1.428319        -1.020709
 H         1.678029         1.414743        -1.800856
 H         1.579764         2.402105        -0.177846
 H         4.420907         1.479280        -2.037917
 H         5.164922         0.131347        -1.026242
 H         3.228725        -1.384339        -0.215339
 H         2.108535        -0.887507         1.765669
 H         1.207966         0.658599         2.113904
