19
Iteration:  3608charge 0 multiplicity 1
 C        -0.007943        -0.776149        -0.129921
 C         1.317071        -0.018489        -0.202360
 C         1.813664         1.252437        -1.012976
 C         3.162911         0.779709        -0.287882
 C         4.246986         0.545986        -1.363874
 O         3.421132        -0.666985        -1.805499
 C         2.778136        -0.667828        -0.539953
 O         3.032746         1.094389         1.076307
 C         1.695069         0.493542         1.201905
 H        -0.631003        -0.242023         0.669118
 H        -0.601559        -0.796114        -1.070925
 H         0.072121        -1.841870         0.207074
 H         1.809660         1.192671        -2.152318
 H         1.419104         2.226025        -0.705562
 H         4.217404         1.271161        -2.147159
 H         5.266337         0.147125        -1.008276
 H         3.185976        -1.460007         0.150092
 H         1.772608        -0.396541         1.881569
 H         0.913392         1.170776         1.693468
