19
Iteration:  3156charge 0 multiplicity 1
 C        -0.095164        -0.682176        -0.181094
 C         1.301111        -0.047810        -0.143221
 C         1.775739         1.188024        -0.955760
 C         3.175097         0.771291        -0.347155
 C         4.166555         0.560392        -1.461659
 O         3.576035        -0.687042        -1.841712
 C         2.788390        -0.665619        -0.518766
 O         2.997895         1.084032         1.097779
 C         1.755080         0.456231         1.293327
 H        -0.771083         0.189019        -0.261386
 H        -0.208330        -1.540904        -0.861306
 H        -0.210703        -1.249832         0.805439
 H         1.569363         1.160249        -2.036725
 H         1.302658         2.065347        -0.589352
 H         4.129149         1.316642        -2.216896
 H         5.362324         0.488053        -1.211071
 H         3.126391        -1.423208         0.198381
 H         1.704056        -0.241378         2.155808
 H         1.171927         1.334029         1.521145
