19
Iteration:   838
 C        -0.053172        -0.765622        -0.240995
 C         1.319472        -0.015930        -0.114530
 C         1.725761         1.346215        -0.819346
 C         3.073722         0.847237        -0.318297
 C         4.218298         0.592245        -1.294192
 O         3.322423        -0.479580        -1.964645
 C         2.677544        -0.557023        -0.655526
 O         3.234507         0.939036         1.102905
 C         1.866961         0.182556         1.278440
 H        -0.463271        -0.842272        -1.266480
 H         0.046659        -1.783737         0.079836
 H        -0.839529        -0.372324         0.539227
 H         1.699698         1.248699        -1.917936
 H         1.371887         2.328186        -0.452309
 H         4.473675         1.331318        -2.174970
 H         5.068860         0.153214        -0.856723
 H         3.195598        -1.392594        -0.048968
 H         2.162050        -0.874477         1.644922
 H         1.185436         0.722491         2.041433
