19
Iteration:  3493
 C        -0.075498        -0.748907        -0.102616
 C         1.310928        -0.035151        -0.233686
 C         1.791268         1.285651        -1.002158
 C         3.140410         0.831227        -0.305495
 C         4.236531         0.604405        -1.365934
 O         3.479135        -0.739341        -1.768791
 C         2.771831        -0.642600        -0.526591
 O         3.088540         1.041078         1.027356
 C         1.712709         0.459563         1.197508
 H        -0.850786        -0.035927         0.010971
 H        -0.398375        -1.320847        -0.942170
 H        -0.204316        -1.403208         0.726502
 H         1.912704         1.227751        -2.044274
 H         1.188820         2.147517        -0.541374
 H         4.218711         1.351412        -2.246962
 H         5.184778         0.218970        -0.937135
 H         3.033618        -1.502645         0.075587
 H         1.870012        -0.355083         1.980166
 H         1.065210         1.210396         1.676730
