19
Iteration:   995charge 0 multiplicity 1
 C        -0.065355        -0.717119        -0.173002
 C         1.337010        -0.123233        -0.130485
 C         1.799674         1.210143        -0.929864
 C         3.246987         0.719400        -0.251997
 C         4.261235         0.655916        -1.378553
 O         3.263383        -0.428301        -1.991493
 C         2.798176        -0.734036        -0.541415
 O         3.105494         0.958838         1.086682
 C         1.727939         0.412790         1.311311
 H        -0.149509        -1.347507         0.704237
 H        -0.857160         0.049930        -0.237331
 H        -0.151171        -1.324426        -1.108745
 H         1.759345         1.313355        -2.061192
 H         1.400844         2.171974        -0.415660
 H         4.298371         1.534818        -1.980908
 H         5.301004         0.335926        -1.156785
 H         3.286336        -1.590028        -0.082858
 H         1.767743        -0.355594         2.126929
 H         0.928593         1.054268         1.644605
