19
Iteration:  4944charge 0 multiplicity 1
 C         0.061342        -0.759181        -0.261388
 C         1.380080        -0.042672        -0.094526
 C         1.814934         1.209788        -0.930431
 C         3.205618         0.779885        -0.272869
 C         4.158601         0.580982        -1.515236
 O         3.353867        -0.676417        -1.840024
 C         2.779976        -0.747019        -0.454895
 O         3.035924         1.120045         1.160468
 C         1.703707         0.525154         1.254317
 H        -0.822593         0.024601        -0.271522
 H        -0.033094        -1.087301        -1.322404
 H        -0.238904        -1.568759         0.429960
 H         2.035077         1.093774        -2.018361
 H         1.473755         2.127782        -0.573282
 H         4.018733         1.390492        -2.178868
 H         5.268794         0.367251        -1.578759
 H         3.000088        -1.670395         0.044068
 H         1.696328        -0.162993         2.179339
 H         0.871039         1.241237         1.303680
