19
Iteration:  4934charge 0 multiplicity 1
 C        -0.008708        -0.726689        -0.292052
 C         1.353440        -0.085690        -0.122638
 C         1.859833         1.189457        -0.884779
 C         3.228201         0.785131        -0.298730
 C         4.204747         0.618642        -1.523781
 O         3.390621        -0.755942        -1.825618
 C         2.746001        -0.619710        -0.542605
 O         3.047049         1.111717         1.126558
 C         1.667071         0.506664         1.345963
 H        -0.913599        -0.020401        -0.204679
 H         0.151807        -1.208701        -1.269369
 H        -0.018352        -1.528570         0.464448
 H         1.539604         0.991266        -1.947145
 H         1.329556         2.112248        -0.759413
 H         3.998317         1.343316        -2.249153
 H         5.245858         0.362681        -1.246285
 H         3.014522        -1.452943         0.083890
 H         1.796512        -0.179554         2.264678
 H         1.004540         1.290580         1.705941
