19
Iteration:  3947
 C        -0.056209        -0.685152        -0.211830
 C         1.348233        -0.072966        -0.189563
 C         1.824326         1.106112        -0.987284
 C         3.222612         0.681144        -0.259510
 C         4.206491         0.584909        -1.389559
 O         3.389244        -0.545801        -1.823263
 C         2.766791        -0.752362        -0.468269
 O         2.996142         1.213884         1.058023
 C         1.739548         0.419763         1.240703
 H        -0.591385         0.055114         0.457301
 H        -0.473972        -0.500102        -1.215998
 H        -0.080427        -1.744497         0.313385
 H         1.903791         0.799743        -1.984825
 H         1.248325         2.031143        -0.662994
 H         4.434450         1.309576        -2.105492
 H         5.218082         0.225147        -1.018927
 H         3.295572        -1.575039        -0.046886
 H         2.092331        -0.288090         1.951572
 H         0.917549         1.043419         1.571024
