19
Iteration:  2168
 C        -0.011188        -0.841042        -0.289945
 C         1.279731         0.039757        -0.131670
 C         1.776012         1.281278        -0.903888
 C         3.160742         0.797320        -0.327794
 C         4.289396         0.465892        -1.501764
 O         3.367181        -0.622957        -1.774971
 C         2.715561        -0.590667        -0.420411
 O         3.051902         1.099097         0.988899
 C         1.783985         0.412772         1.337459
 H        -0.933514        -0.282505        -0.046073
 H        -0.175148        -1.101923        -1.370576
 H         0.298504        -1.723527         0.341025
 H         1.773417         1.151669        -1.963677
 H         1.573236         2.250347        -0.598251
 H         4.428601         1.207607        -2.257887
 H         5.197909         0.205088        -0.900373
 H         2.980499        -1.394573         0.353764
 H         1.922141        -0.433836         2.006207
 H         1.049597         1.142331         1.699369
