19
Iteration:  2086charge 0 multiplicity 1
 C        -0.015543        -0.650347        -0.193640
 C         1.345849        -0.075476        -0.182126
 C         1.670697         1.181320        -0.959992
 C         3.120276         0.866709        -0.345381
 C         4.287583         0.426578        -1.343713
 O         3.495915        -0.610635        -1.806905
 C         2.708229        -0.700134        -0.560017
 O         2.991356         1.205873         1.013046
 C         1.814697         0.383578         1.325029
 H        -0.741805        -0.204315         0.552323
 H        -0.446705        -0.674328        -1.199183
 H        -0.072936        -1.693637         0.084214
 H         1.577090         1.040426        -2.027149
 H         1.282868         2.147279        -0.647037
 H         4.520075         1.259709        -2.066522
 H         5.294257         0.097072        -0.938612
 H         3.059752        -1.457373         0.086666
 H         2.279036        -0.553402         1.787410
 H         1.025409         0.754578         2.015139
