19
Iteration:  1780
 C        -0.053799        -0.698032        -0.147301
 C         1.378386        -0.079686        -0.137759
 C         1.688059         1.199091        -0.983956
 C         3.171969         0.823029        -0.296357
 C         4.231444         0.489559        -1.337478
 O         3.472063        -0.605713        -1.854115
 C         2.750076        -0.676291        -0.607157
 O         3.094389         1.051738         1.099587
 C         1.719198         0.493893         1.235024
 H        -0.873751         0.017979        -0.388351
 H        -0.036212        -1.386975        -0.969247
 H        -0.182428        -1.204505         0.767017
 H         1.560334         1.158539        -2.104115
 H         1.219153         2.185182        -0.547195
 H         4.303762         1.183914        -2.200232
 H         5.303030         0.255127        -0.966545
 H         2.998240        -1.551960         0.002017
 H         1.772774        -0.209057         2.057118
 H         1.008843         1.214267         1.552903
