19
Iteration:   592charge 0 multiplicity 1
 C        -0.038676        -0.681667        -0.218997
 C         1.384379        -0.191582        -0.066099
 C         1.727429         1.197978        -0.619091
 C         3.156038         0.778650        -0.266683
 C         4.174910         0.630087        -1.353726
 O         3.231325        -0.146839        -2.123393
 C         2.649644        -0.639062        -0.799731
 O         3.149570         0.954080         1.100712
 C         2.038158         0.080157         1.384158
 H        -0.291979        -0.522911        -1.344328
 H        -0.234599        -1.804529        -0.161122
 H        -0.809870        -0.201112         0.267320
 H         1.516533         1.223268        -1.673541
 H         1.406304         2.120567        -0.123027
 H         4.567798         1.351297        -1.946855
 H         4.919323         0.071743        -0.837218
 H         2.901967        -1.668099        -0.436873
 H         2.331527        -0.866925         1.875987
 H         1.250872         0.717906         1.849846
