19
Iteration:  3103
 C         0.030861        -0.811672        -0.366787
 C         1.373749        -0.074028        -0.106263
 C         1.673515         1.234623        -0.879358
 C         3.121791         0.847998        -0.364069
 C         4.271251         0.436745        -1.362971
 O         3.338600        -0.641758        -1.839866
 C         2.724925        -0.681927        -0.509368
 O         3.101262         1.204644         1.056773
 C         1.791997         0.525222         1.349968
 H        -0.829826        -0.249203        -0.100105
 H        -0.135173        -1.030653        -1.452979
 H        -0.029654        -1.747578         0.233780
 H         1.469761         1.176823        -1.950944
 H         1.176170         2.199126        -0.715750
 H         4.698331         0.926663        -2.215846
 H         5.020928        -0.029810        -0.669106
 H         3.151821        -1.494032         0.115437
 H         2.201598        -0.288008         2.033176
 H         1.134724         1.233163         1.948543
