19
Iteration:  4406charge 0 multiplicity 1
 C        -0.066448        -0.717107        -0.119943
 C         1.333148        -0.010546        -0.194079
 C         1.802005         1.227963        -0.962319
 C         3.102111         0.819177        -0.352031
 C         4.232826         0.527817        -1.420110
 O         3.577995        -0.642927        -1.778818
 C         2.699191        -0.689035        -0.545583
 O         2.985072         1.138526         1.063012
 C         1.764635         0.362857         1.275927
 H        -0.894821         0.003542        -0.267084
 H        -0.293367        -1.352869        -0.988050
 H        -0.204489        -1.214045         0.873121
 H         1.601534         1.147263        -2.090614
 H         1.450942         2.281753        -0.608363
 H         4.230951         1.210739        -2.262874
 H         5.282789         0.310153        -1.130340
 H         3.306768        -1.490238         0.017076
 H         1.927567        -0.589969         1.828615
 H         0.932457         0.931969         1.731475
