19
Iteration:  2878charge 0 multiplicity 1
 C        -0.031068        -0.688381        -0.172931
 C         1.305181        -0.058378        -0.128906
 C         1.797363         1.287168        -0.967980
 C         3.111432         0.867138        -0.380807
 C         4.205845         0.594814        -1.358481
 O         3.469257        -0.730385        -1.738082
 C         2.774390        -0.686221        -0.513126
 O         3.000153         1.159221         0.981462
 C         1.813158         0.298840         1.241819
 H        -0.842340        -0.376617         0.558680
 H        -0.416704        -0.609522        -1.212420
 H        -0.010091        -1.770001        -0.096846
 H         1.745629         1.191945        -1.987567
 H         1.399914         2.151190        -0.563542
 H         4.179052         1.297116        -2.230999
 H         5.241162         0.456183        -1.000855
 H         3.224144        -1.368308         0.204236
 H         1.972198        -0.647417         1.852207
 H         1.037148         0.855103         1.778372
