19
Iteration:  1259
 C         0.098272        -0.807672        -0.227415
 C         1.313048         0.049313        -0.186850
 C         1.697490         1.249928        -0.915480
 C         3.151055         0.809251        -0.307213
 C         4.199692         0.487733        -1.366398
 O         3.376742        -0.594810        -1.824039
 C         2.677466        -0.582343        -0.549303
 O         3.135500         1.065534         1.064933
 C         1.734020         0.371760         1.259246
 H        -0.400547        -0.484805        -1.135973
 H         0.450880        -1.745596        -0.298009
 H        -0.562196        -0.629605         0.593367
 H         1.623758         1.304621        -2.036794
 H         1.444465         2.256973        -0.372320
 H         4.419300         1.189141        -2.124967
 H         5.050161        -0.002093        -0.842535
 H         2.942557        -1.477067         0.074273
 H         1.908407        -0.598438         1.822097
 H         1.227712         1.142649         1.816496
