19
Iteration:  2948charge 0 multiplicity 1
 C         0.088523        -0.802781        -0.219686
 C         1.386444        -0.036820        -0.186678
 C         1.761989         1.298808        -0.959434
 C         3.181335         0.836111        -0.331669
 C         4.277924         0.506838        -1.428907
 O         3.325365        -0.642740        -1.842020
 C         2.663872        -0.648989        -0.536788
 O         3.038991         1.125809         1.152295
 C         1.746460         0.486778         1.300927
 H        -0.907349        -0.448391        -0.165814
 H         0.122023        -1.446559        -1.103031
 H         0.081300        -1.711835         0.490577
 H         1.687571         1.146231        -2.114203
 H         1.273340         2.147712        -0.368633
 H         4.510283         1.113024        -2.225663
 H         5.186374         0.027180        -1.100273
 H         2.965084        -1.585883        -0.003917
 H         1.875293        -0.322371         2.144240
 H         0.851754         1.102238         1.661135
