19
Iteration:  3457
 C        -0.044815        -0.766317        -0.185491
 C         1.303157        -0.074709        -0.115223
 C         1.728894         1.243069        -0.954018
 C         3.149128         0.845171        -0.369511
 C         4.257508         0.512633        -1.280825
 O         3.458385        -0.704378        -1.844674
 C         2.728537        -0.659179        -0.563749
 O         3.048141         1.113974         0.993498
 C         1.749227         0.495430         1.302493
 H        -0.806672        -0.185767         0.414975
 H        -0.294177        -0.664188        -1.249394
 H         0.121792        -1.794026         0.198691
 H         1.773441         1.134170        -2.081830
 H         1.248023         2.179828        -0.794866
 H         4.716606         1.227840        -2.096996
 H         5.175803         0.159110        -0.850314
 H         3.026253        -1.508876         0.140813
 H         2.013243        -0.225603         2.048510
 H         1.213854         1.387595         1.713108
