19
Iteration:  4549charge 0 multiplicity 1
 C        -0.047880        -0.695310        -0.204781
 C         1.227653        -0.076895        -0.076685
 C         1.685673         1.108117        -0.935743
 C         3.102561         0.752423        -0.363948
 C         4.364820         0.489906        -1.203630
 O         3.452685        -0.623512        -1.979014
 C         2.737709        -0.647498        -0.571629
 O         3.032473         1.230622         0.962552
 C         1.848501         0.433259         1.378884
 H        -0.884685        -0.009277         0.029857
 H        -0.207630        -0.719660        -1.299464
 H        -0.220790        -1.613133         0.321065
 H         1.407383         0.892320        -1.942184
 H         1.312799         2.270672        -0.787347
 H         4.687904         1.257478        -1.895069
 H         5.275724         0.067096        -0.584804
 H         3.254223        -1.434395         0.083730
 H         2.242480        -0.390492         1.934682
 H         1.095092         1.019945         1.956217
