19
Iteration:  3720charge 0 multiplicity 1
 C         0.017661        -0.803891        -0.263645
 C         1.320830        -0.013032        -0.080335
 C         1.715991         1.200294        -0.907950
 C         3.179884         0.708435        -0.323695
 C         4.270176         0.503052        -1.418556
 O         3.385283        -0.578315        -1.839103
 C         2.779930        -0.685231        -0.526066
 O         3.065154         1.112193         1.062638
 C         1.695044         0.515295         1.329580
 H        -0.839690        -0.098049        -0.375158
 H         0.203087        -1.336807        -1.160073
 H        -0.243693        -1.628615         0.411229
 H         1.685635         1.201879        -1.912297
 H         1.395938         2.187170        -0.614960
 H         4.232711         1.274001        -2.290491
 H         5.309126         0.184508        -1.350901
 H         3.229970        -1.531406         0.072506
 H         1.725004         0.038268         2.319035
 H         1.094896         1.486094         1.447978
