19
Iteration:  3359
 C        -0.130332        -0.753599        -0.154137
 C         1.320727        -0.071008        -0.193350
 C         1.758644         1.195616        -0.973524
 C         3.109335         0.760932        -0.349885
 C         4.205432         0.534060        -1.307171
 O         3.534610        -0.657072        -1.851753
 C         2.647174        -0.663687        -0.480071
 O         3.152693         1.108622         1.037146
 C         1.786361         0.531490         1.252319
 H        -0.933100        -0.037805        -0.361428
 H        -0.176265        -1.387928        -1.034811
 H        -0.207664        -1.287044         0.755513
 H         1.732416         1.164529        -2.143741
 H         1.523659         2.175352        -0.519612
 H         4.366397         1.438566        -2.109340
 H         5.216004         0.278171        -0.931330
 H         2.980966        -1.574843         0.076799
 H         1.833525        -0.319049         1.981149
 H         1.059608         1.336481         1.619655
