19
Iteration:  1655
 C        -0.037518        -0.761494        -0.165469
 C         1.275059        -0.029444        -0.121868
 C         1.768395         1.283889        -0.896163
 C         3.141598         0.800099        -0.397121
 C         4.278694         0.547435        -1.344792
 O         3.476496        -0.601512        -1.896416
 C         2.663961        -0.681546        -0.510739
 O         3.074822         1.050946         1.026805
 C         1.747651         0.406770         1.269220
 H        -0.185355        -1.112949        -1.205860
 H         0.083632        -1.624128         0.581267
 H        -0.844997         0.013330         0.204714
 H         1.593917         1.199067        -1.951314
 H         1.441499         2.237018        -0.559073
 H         4.370456         1.313845        -2.128434
 H         5.299668         0.266496        -0.825731
 H         3.080868        -1.582235         0.034634
 H         1.982689        -0.439307         1.878705
 H         1.057498         1.168709         1.713681
