19
Iteration:  1616
 C         0.017359        -0.696541        -0.239460
 C         1.408985        -0.076695        -0.073377
 C         1.787962         1.214641        -0.946844
 C         3.124774         0.875265        -0.374689
 C         4.215935         0.491573        -1.325223
 O         3.372246        -0.535096        -1.957534
 C         2.664144        -0.739637        -0.535201
 O         3.019298         1.166287         1.098893
 C         1.872699         0.345323         1.327796
 H        -0.122471        -1.571830        -0.841260
 H        -0.536063        -1.017223         0.616242
 H        -0.646565         0.015758        -0.529840
 H         1.702128         0.917516        -2.044313
 H         1.236913         2.170672        -0.573788
 H         4.617861         1.297577        -1.987423
 H         4.987900         0.018896        -0.830166
 H         3.005350        -1.641813        -0.079635
 H         2.058093        -0.649529         1.916629
 H         1.085970         0.823346         1.922788
