19
Iteration:  4571charge 0 multiplicity 1
 C        -0.106794        -0.704721        -0.149874
 C         1.325815        -0.156067        -0.195755
 C         1.775788         1.128685        -0.973102
 C         3.128131         0.808921        -0.353811
 C         4.289744         0.507873        -1.324842
 O         3.424960        -0.510333        -1.811245
 C         2.719837        -0.719160        -0.518463
 O         3.070671         1.175352         1.002965
 C         1.820926         0.435869         1.282666
 H        -0.849905         0.104902        -0.016196
 H        -0.403281        -1.132000        -1.121190
 H        -0.125414        -1.315007         0.714572
 H         1.695922         1.096353        -2.037658
 H         1.296320         2.206641        -0.668652
 H         4.675500         1.132248        -2.122560
 H         5.167375         0.186671        -0.605003
 H         3.074272        -1.723343        -0.102524
 H         1.961695        -0.341340         2.002195
 H         0.893762         0.952178         1.515489
