19
Iteration:  3883
 C         0.045005        -0.835614        -0.278541
 C         1.278892        -0.014902        -0.173684
 C         1.814880         1.292229        -0.939150
 C         3.118237         0.810714        -0.356640
 C         4.219623         0.524919        -1.336528
 O         3.342770        -0.685450        -1.774085
 C         2.673714        -0.553640        -0.480830
 O         3.084718         1.137963         1.031268
 C         1.850716         0.373187         1.256461
 H        -0.850108        -0.217363        -0.407977
 H         0.055142        -1.523139        -1.086725
 H        -0.159228        -1.484350         0.612221
 H         1.700172         1.310180        -2.019866
 H         1.247000         2.301321        -0.624534
 H         4.586494         1.161934        -2.149147
 H         5.154815         0.270657        -0.791636
 H         2.924994        -1.251290         0.312260
 H         2.145939        -0.532616         1.741981
 H         1.095212         0.984037         1.835202
