19
Iteration:  3273charge 0 multiplicity 1
 C         0.013539        -0.808086        -0.306254
 C         1.257111         0.049675        -0.105999
 C         1.702559         1.303997        -0.899897
 C         3.102299         0.752089        -0.374575
 C         4.198467         0.521548        -1.459203
 O         3.547619        -0.734176        -1.821093
 C         2.638543        -0.655138        -0.388449
 O         3.114430         1.054580         1.082468
 C         1.816305         0.582532         1.315534
 H        -0.883113        -0.430665         0.257834
 H        -0.247961        -0.986330        -1.350421
 H         0.059691        -1.869316        -0.057284
 H         1.820516         0.971388        -2.037749
 H         1.322858         2.341670        -0.990974
 H         4.250609         1.217668        -2.334912
 H         5.186515         0.337838        -1.179112
 H         2.982903        -1.413639         0.342112
 H         1.792291        -0.282045         2.028406
 H         1.136948         1.445684         1.604068
