19
Iteration:  1916charge 0 multiplicity 1
 C        -0.042035        -0.700089        -0.147721
 C         1.332535        -0.112528        -0.112280
 C         1.838440         1.087779        -0.944902
 C         3.215382         0.769602        -0.335903
 C         4.283488         0.598394        -1.365162
 O         3.423498        -0.616913        -1.932899
 C         2.777026        -0.695993        -0.503029
 O         2.982501         1.125241         1.075501
 C         1.682041         0.501492         1.285583
 H        -0.706907        -0.359388         0.586404
 H        -0.529287        -0.185377        -0.979740
 H        -0.053317        -1.784449        -0.306589
 H         1.679443         1.016919        -2.061533
 H         1.530728         2.210741        -0.629230
 H         4.436972         1.269775        -2.339740
 H         5.133743         0.145535        -0.988680
 H         3.141444        -1.559190         0.120025
 H         1.519647        -0.267750         2.097183
 H         1.066556         1.412969         1.532077
