19
Iteration:  3373charge 0 multiplicity 1
 C        -0.045773        -0.766452        -0.288459
 C         1.220776        -0.019202        -0.238793
 C         1.709923         1.268321        -0.906401
 C         3.154542         0.759548        -0.348738
 C         4.233453         0.547615        -1.414990
 O         3.499183        -0.692412        -1.702587
 C         2.714336        -0.708035        -0.552804
 O         3.206663         1.085197         1.002573
 C         1.710359         0.524068         1.344433
 H        -0.836402        -0.084581         0.014054
 H        -0.278691        -1.506743        -1.091923
 H         0.038546        -1.360120         0.665062
 H         1.519100         1.223024        -2.003342
 H         1.284530         2.263728        -0.462546
 H         4.249301         1.188578        -2.327231
 H         5.178328         0.330578        -0.937785
 H         3.007696        -1.459578         0.153112
 H         1.803496        -0.152506         2.271044
 H         1.132006         1.418179         1.615841
