19
Iteration:  2553
 C        -0.022821        -0.712045        -0.120636
 C         1.316063        -0.034973        -0.227081
 C         1.730753         1.254572        -0.944219
 C         3.159654         0.838050        -0.336573
 C         4.246018         0.524529        -1.343575
 O         3.538347        -0.677247        -1.808547
 C         2.639922        -0.635756        -0.605559
 O         3.042025         1.127752         1.009431
 C         1.770824         0.376194         1.284193
 H        -0.861225        -0.116290         0.218665
 H        -0.155041        -1.327574        -1.065320
 H        -0.113579        -1.481149         0.754389
 H         1.749828         1.115003        -2.082501
 H         1.183104         2.206199        -0.692367
 H         4.551650         1.200707        -2.114171
 H         5.095099         0.173620        -0.591338
 H         2.903290        -1.565167        -0.080730
 H         1.938626        -0.487007         2.050260
 H         1.096296         1.169908         1.734298
