19
Iteration:   211charge 0 multiplicity 1
 C        -0.066790        -0.757308        -0.203383
 C         1.360681        -0.098915        -0.132909
 C         1.743018         1.409802        -0.434970
 C         3.139021         0.787452        -0.255945
 C         4.119114         0.890237        -1.496299
 O         3.202576        -0.046930        -2.140339
 C         2.620812        -0.496714        -0.826380
 O         3.355306         0.435606         1.158146
 C         1.963263        -0.121235         1.317509
 H        -0.626822        -0.218102         0.620016
 H        -0.548281        -0.541885        -1.177971
 H        -0.092224        -1.728965         0.083704
 H         1.496457         1.676087        -1.484706
 H         1.366066         2.212271         0.246424
 H         4.136784         1.817952        -2.111826
 H         5.054779         0.508121        -1.442636
 H         3.041752        -1.457705        -0.629154
 H         2.069586        -1.068905         1.888344
 H         1.385726         0.638078         1.934062
