19
Iteration:  3649
 C        -0.142208        -0.681034        -0.244696
 C         1.324412        -0.107647        -0.045409
 C         1.709707         1.138991        -0.930203
 C         3.078656         0.744286        -0.338070
 C         4.291669         0.507761        -1.269372
 O         3.478875        -0.612349        -1.928868
 C         2.787605        -0.727380        -0.620976
 O         3.025575         1.232475         0.993211
 C         1.834889         0.476227         1.400637
 H        -0.896521        -0.043763         0.077621
 H        -0.140999        -0.938576        -1.321669
 H        -0.201587        -1.677359         0.130775
 H         1.568483         0.919655        -2.101531
 H         1.294541         2.159556        -0.802088
 H         4.649760         1.317940        -1.855915
 H         5.212709         0.039318        -0.765520
 H         3.408163        -1.299218         0.019253
 H         2.108855        -0.299076         2.181487
 H         1.061702         1.107946         1.812388
