19
Iteration:  2299charge 0 multiplicity 1
 C         0.017201        -0.812169        -0.307406
 C         1.355320        -0.108611        -0.104888
 C         1.769133         1.228828        -0.929520
 C         3.066321         0.819795        -0.327518
 C         4.289206         0.431640        -1.395597
 O         3.317069        -0.596243        -1.838588
 C         2.715850        -0.616301        -0.514614
 O         3.026453         1.218970         1.039266
 C         1.853296         0.475662         1.339689
 H        -0.613257        -0.336000         0.442199
 H        -0.198174        -0.644202        -1.376915
 H        -0.092279        -1.905853        -0.088034
 H         1.833781         1.030196        -1.948336
 H         1.321432         2.114254        -0.725650
 H         4.888755         0.996918        -2.043561
 H         5.048001        -0.123700        -0.750394
 H         3.039880        -1.498123         0.053818
 H         2.097786        -0.390416         2.109399
 H         1.129698         1.196074         1.823272
