19
Iteration:  3770
 C        -0.031170        -0.714763        -0.199656
 C         1.317939        -0.001290        -0.124901
 C         1.734736         1.234195        -0.960149
 C         3.150099         0.809833        -0.416257
 C         4.335554         0.523543        -1.351984
 O         3.447996        -0.710837        -1.852304
 C         2.746347        -0.601450        -0.445761
 O         2.950852         1.188569         1.034363
 C         1.801254         0.366592         1.263678
 H        -0.773131        -0.216930         0.454450
 H        -0.455306        -0.984292        -1.244017
 H         0.192008        -1.764804         0.170096
 H         1.347419         0.938863        -2.029768
 H         1.275980         2.268697        -0.629579
 H         4.542097         1.218462        -2.105135
 H         5.180276        -0.030835        -0.854328
 H         3.124752        -1.392120         0.178693
 H         2.191038        -0.488742         1.854684
 H         1.090146         0.835204         1.938778
