19
Iteration:  1114
 C        -0.043648        -0.795814        -0.255706
 C         1.368617        -0.120394        -0.139457
 C         1.727646         1.171222        -0.972532
 C         3.215978         0.756722        -0.272282
 C         4.269825         0.565018        -1.427733
 O         3.308745        -0.455098        -1.927123
 C         2.722109        -0.639875        -0.603420
 O         3.138418         0.995812         1.230338
 C         1.765472         0.502759         1.351962
 H        -0.010730        -1.771487        -0.681626
 H        -0.420681        -0.784588         0.735305
 H        -0.738795        -0.096606        -0.750974
 H         1.678912         1.011641        -2.068056
 H         1.336484         2.167955        -0.644154
 H         4.291684         1.507423        -2.195203
 H         5.225505         0.017343        -1.366156
 H         3.082440        -1.598141        -0.104123
 H         1.855631        -0.191783         2.258758
 H         0.990611         1.231417         1.629508
