19
Iteration:  3423charge 0 multiplicity 1
 C         0.008597        -0.720747        -0.321143
 C         1.352671        -0.133570        -0.105082
 C         1.749293         1.166238        -0.951970
 C         3.268072         0.820377        -0.235013
 C         4.321254         0.449039        -1.414284
 O         3.244715        -0.634856        -1.777607
 C         2.714772        -0.675880        -0.428566
 O         2.980866         1.279522         1.009200
 C         1.849743         0.482492         1.264565
 H        -0.866295        -0.320575         0.305249
 H        -0.151991        -0.582141        -1.447756
 H         0.053786        -1.830065        -0.244243
 H         1.842722         0.875310        -2.059077
 H         1.321692         2.071298        -0.663864
 H         4.353892         1.269723        -2.219824
 H         5.208815        -0.086720        -1.109282
 H         3.056243        -1.636701         0.111302
 H         2.016860        -0.374591         1.878686
 H         1.131752         1.073500         1.877619
