19
Iteration:  1882charge 0 multiplicity 1
 C        -0.027706        -0.831554        -0.269555
 C         1.293043        -0.016614        -0.204469
 C         1.744707         1.198069        -0.979301
 C         3.174728         0.776330        -0.303042
 C         4.266646         0.466381        -1.359851
 O         3.380196        -0.602482        -1.788166
 C         2.700260        -0.633257        -0.445328
 O         3.125917         1.171161         1.081970
 C         1.802807         0.489679         1.251132
 H        -0.582213        -0.837672         0.656633
 H        -0.544976        -0.409382        -1.092246
 H         0.004966        -1.859638        -0.563077
 H         1.623448         1.153043        -2.103172
 H         1.345319         2.180430        -0.398560
 H         4.443456         1.189943        -2.293057
 H         5.237499         0.151630        -1.026099
 H         2.814077        -1.525605         0.213118
 H         1.697139        -0.437579         1.872013
 H         1.168796         1.332180         1.592825
