19
Iteration:   915
 C         0.009922        -0.684615        -0.301182
 C         1.337623        -0.027217        -0.087630
 C         1.681881         1.209236        -0.842777
 C         3.152862         0.771916        -0.291727
 C         4.226423         0.615160        -1.407586
 O         3.322563        -0.508822        -1.952835
 C         2.726779        -0.629015        -0.591295
 O         3.108881         1.029893         1.114984
 C         1.862927         0.230253         1.383407
 H        -0.737738        -0.009982         0.127031
 H        -0.175946        -0.554700        -1.300116
 H        -0.160183        -1.723736         0.051544
 H         1.515239         1.122129        -1.922071
 H         1.224395         2.160897        -0.512100
 H         4.497116         1.489925        -2.140695
 H         5.147872         0.179062        -1.095105
 H         3.154708        -1.541127        -0.046615
 H         2.190061        -0.795301         1.728403
 H         1.213702         0.928719         2.012820
