19
Iteration:   510charge 0 multiplicity 1
 C        -0.087657        -0.694458        -0.288998
 C         1.365718        -0.137551        -0.175089
 C         1.727666         1.317816        -0.524832
 C         3.118786         0.814604        -0.265597
 C         4.083714         0.751874        -1.480420
 O         3.249880        -0.298692        -2.062940
 C         2.714476        -0.599470        -0.755486
 O         3.247488         0.759276         1.154276
 C         2.015705         0.077930         1.382311
 H         0.012159        -1.745962        -0.280934
 H        -0.828111        -0.342514         0.410529
 H        -0.419876        -0.366045        -1.345674
 H         1.511073         1.503351        -1.624215
 H         1.337419         2.249260         0.046568
 H         4.184191         1.690324        -2.146409
 H         5.097628         0.384375        -1.217621
 H         3.153717        -1.425630        -0.191550
 H         2.238515        -0.889071         2.007272
 H         1.251146         0.621407         2.003591
