19
Iteration:  3454
 C        -0.053975        -0.758922        -0.209437
 C         1.300026        -0.105370        -0.129387
 C         1.748248         1.242346        -0.948650
 C         3.146565         0.840807        -0.351477
 C         4.255953         0.510508        -1.294587
 O         3.439858        -0.685814        -1.862312
 C         2.732922        -0.699845        -0.537985
 O         3.064188         1.166219         0.963123
 C         1.738756         0.490243         1.347716
 H        -0.831910        -0.203149         0.429701
 H        -0.342888        -0.617237        -1.311497
 H         0.243145        -1.772248         0.173391
 H         1.868462         1.081580        -2.082495
 H         1.294104         2.190732        -0.732234
 H         4.672138         1.144700        -2.009880
 H         5.160104         0.150579        -0.787610
 H         3.069189        -1.530994         0.143875
 H         1.961401        -0.283427         2.083222
 H         1.171213         1.335128         1.791741
