19
Iteration:   512
 C        -0.083040        -0.694843        -0.283422
 C         1.350742        -0.118839        -0.187930
 C         1.747143         1.324048        -0.524999
 C         3.118973         0.812124        -0.259968
 C         4.070919         0.759740        -1.484098
 O         3.272186        -0.300083        -2.066856
 C         2.704596        -0.615645        -0.739627
 O         3.236039         0.746933         1.154004
 C         2.023852         0.089817         1.380731
 H         0.060619        -1.754489        -0.317162
 H        -0.838054        -0.401135         0.439924
 H        -0.497958        -0.383089        -1.287525
 H         1.467640         1.537929        -1.620971
 H         1.356316         2.259534         0.055613
 H         4.100991         1.629230        -2.104865
 H         5.084010         0.420386        -1.282541
 H         3.202435        -1.451293        -0.192415
 H         2.238368        -0.914095         1.977210
 H         1.253422         0.648775         1.955913
