19
Iteration:  2903
 C        -0.023403        -0.741607        -0.314157
 C         1.279422        -0.140226        -0.133994
 C         1.703031         1.117510        -0.935984
 C         3.165557         0.789934        -0.341500
 C         4.297383         0.574916        -1.436708
 O         3.412550        -0.605281        -1.855939
 C         2.722507        -0.719627        -0.478231
 O         3.085185         1.199513         1.117401
 C         1.818087         0.511245         1.357368
 H        -0.675002        -0.348845         0.435522
 H        -0.430529        -0.616747        -1.330759
 H        -0.154367        -1.828675        -0.024790
 H         1.613588         0.935678        -2.033226
 H         1.346929         2.123057        -0.527912
 H         4.423502         1.200641        -2.225673
 H         5.270564         0.342780        -0.988905
 H         3.144952        -1.611449         0.032525
 H         1.663401        -0.299838         2.184476
 H         1.040906         1.313016         1.526293
