19
Iteration:  4491charge 0 multiplicity 1
 C         0.044620        -0.801860        -0.254699
 C         1.293689        -0.005442        -0.142436
 C         1.881405         1.257718        -0.912730
 C         3.184771         0.807005        -0.293326
 C         4.180316         0.555099        -1.559869
 O         3.415930        -0.686284        -1.798777
 C         2.762558        -0.698385        -0.418694
 O         3.021540         1.064660         1.093660
 C         1.666500         0.550736         1.303382
 H        -0.673941        -0.303980         0.352877
 H        -0.078782        -0.867792        -1.327872
 H         0.281358        -1.884410        -0.022798
 H         1.693348         1.008099        -2.036810
 H         1.489199         2.232047        -0.519389
 H         4.062654         1.334890        -2.471517
 H         5.210245         0.295464        -1.333971
 H         3.062532        -1.612966         0.092460
 H         1.530291        -0.189090         2.129708
 H         1.012654         1.373875         1.596723
