19
Iteration:  3315
 C        -0.048880        -0.662044        -0.178279
 C         1.355037        -0.167878        -0.181891
 C         1.755300         1.148253        -0.973535
 C         3.184967         0.830653        -0.341024
 C         4.259750         0.432075        -1.344671
 O         3.398746        -0.609482        -1.892896
 C         2.734312        -0.692386        -0.420617
 O         2.971378         1.263700         1.072144
 C         1.845492         0.395571         1.243006
 H        -0.687184         0.234951        -0.217628
 H        -0.392808        -1.082943        -1.124532
 H        -0.378469        -1.247805         0.654665
 H         1.749006         1.213552        -2.169442
 H         1.103856         2.005174        -0.655282
 H         4.724259         1.157384        -2.186323
 H         5.165886         0.117515        -0.802544
 H         3.325531        -1.450529         0.159625
 H         2.177610        -0.436124         1.948987
 H         1.011536         1.032023         1.717902
