19
Iteration:  2339charge 0 multiplicity 1
 C        -0.015459        -0.824093        -0.347233
 C         1.326352        -0.067551        -0.110609
 C         1.803946         1.279378        -0.891971
 C         3.220385         0.859126        -0.351515
 C         4.183979         0.521679        -1.438103
 O         3.388289        -0.698726        -1.791443
 C         2.681324        -0.686895        -0.474045
 O         3.071805         1.161956         1.066223
 C         1.807209         0.473324         1.342431
 H        -0.793462        -0.291268         0.298841
 H        -0.258409        -0.764676        -1.427695
 H        -0.047921        -1.841716        -0.044686
 H         1.728088         1.187781        -2.026868
 H         1.209288         2.266985        -0.661633
 H         4.220463         1.219450        -2.317639
 H         5.168495         0.176783        -1.111460
 H         3.092883        -1.491551         0.128824
 H         1.944347        -0.255954         2.107384
 H         1.039653         1.142978         1.746146
