19
Iteration:   620
 C        -0.061785        -0.716713        -0.291483
 C         1.323090        -0.041102        -0.064008
 C         1.725518         1.334121        -0.672759
 C         3.212475         0.763495        -0.277477
 C         4.179421         0.734314        -1.494604
 O         3.232844        -0.347204        -2.015326
 C         2.722264        -0.581576        -0.679601
 O         3.191198         0.841667         1.140652
 C         1.950009         0.039766         1.366755
 H        -0.794309        -0.216780        -0.916682
 H         0.159372        -1.651198        -0.787930
 H        -0.729026        -0.930103         0.642871
 H         1.476152         1.347691        -1.765773
 H         1.418672         2.305347        -0.160194
 H         4.084621         1.693418        -2.169848
 H         5.293138         0.481475        -1.400198
 H         3.050072        -1.462170        -0.129308
 H         2.091574        -0.988780         1.785681
 H         1.309978         0.544215         2.083772
