19
Iteration:  1520
 C        -0.107231        -0.762950        -0.262380
 C         1.374127        -0.087732        -0.190092
 C         1.768945         1.249542        -0.878560
 C         3.182506         0.816387        -0.247368
 C         4.226745         0.500183        -1.313272
 O         3.332985        -0.549063        -1.900136
 C         2.738365        -0.688418        -0.603789
 O         3.074067         1.201716         1.048540
 C         1.850118         0.368853         1.306940
 H        -0.241534        -1.458966        -1.170870
 H        -0.278862        -1.535813         0.498367
 H        -0.998390        -0.101910        -0.072378
 H         1.759928         0.924137        -1.898251
 H         1.275444         2.074780        -0.560683
 H         4.642720         1.400376        -1.955411
 H         5.081159        -0.095143        -0.975774
 H         3.044569        -1.524941        -0.014009
 H         2.292548        -0.410533         1.927206
 H         1.259886         0.965971         1.935663
