19
Iteration:  1704
 C        -0.095699        -0.748104        -0.281370
 C         1.359748        -0.096567        -0.097643
 C         1.801621         1.196342        -0.917323
 C         3.195713         0.761093        -0.339821
 C         4.226007         0.527805        -1.447912
 O         3.310690        -0.546490        -1.780222
 C         2.842936        -0.690770        -0.466833
 O         3.065662         1.112978         1.029301
 C         1.749430         0.431297         1.297763
 H        -0.362600        -0.180242        -1.180144
 H        -0.040432        -1.760650        -0.628820
 H        -0.729847        -0.631647         0.521061
 H         1.738553         1.201520        -2.059501
 H         1.423441         2.225484        -0.483119
 H         4.357117         1.396617        -2.158052
 H         5.161230         0.048512        -1.076073
 H         3.277527        -1.405495         0.236373
 H         1.859851        -0.347566         2.112045
 H         1.089633         1.235102         1.602031
