19
Iteration:  3258charge 0 multiplicity 1
 C        -0.017432        -0.815637        -0.299887
 C         1.303443        -0.016514        -0.140034
 C         1.779578         1.204081        -0.949120
 C         3.171321         0.869662        -0.323398
 C         4.176427         0.514501        -1.440700
 O         3.410933        -0.753406        -1.736090
 C         2.732547        -0.605918        -0.558716
 O         3.159350         1.051790         1.091697
 C         1.695730         0.592449         1.313610
 H        -0.773888        -0.485023         0.403652
 H        -0.257364        -0.744827        -1.373460
 H         0.344676        -1.806616        -0.068372
 H         1.664767         1.017320        -2.011920
 H         1.363448         2.164318        -0.528452
 H         4.090256         1.250345        -2.328921
 H         5.215339         0.286343        -1.031457
 H         3.109205        -1.464763         0.084346
 H         1.716916         0.003040         2.259597
 H         1.060519         1.509249         1.518935
