19
Iteration:  2702
 C        -0.048170        -0.699374        -0.140770
 C         1.316249        -0.124040        -0.186822
 C         1.796035         1.131470        -0.988278
 C         3.211380         0.696462        -0.238386
 C         4.257468         0.575109        -1.359034
 O         3.445132        -0.554238        -1.853959
 C         2.768623        -0.684079        -0.583766
 O         3.052799         1.180364         1.052024
 C         1.673667         0.452763         1.288840
 H        -0.712038        -0.258599         0.712668
 H        -0.704567        -0.543284        -1.007708
 H         0.020386        -1.739829         0.112652
 H         1.770612         0.877216        -2.099265
 H         1.263893         2.082452        -0.924089
 H         4.523957         1.451828        -2.015150
 H         5.114064        -0.041485        -1.148282
 H         3.083232        -1.559802         0.010782
 H         1.735337        -0.371585         2.124076
 H         0.995024         1.328744         1.394569
