19
Iteration:    13
 C         0.015498        -0.749804        -0.235748
 C         1.324277        -0.085537        -0.058323
 C         1.759081         1.482055        -0.282300
 C         3.133607         0.740428        -0.275885
 C         4.043064         0.945548        -1.422043
 O         3.119725         0.059210        -2.189048
 C         2.578375        -0.504607        -0.857675
 O         3.334808         0.476920         1.088667
 C         2.064817        -0.360518         1.226723
 H        -0.568290        -0.632573         0.751886
 H        -0.443751        -0.109843        -1.007001
 H         0.010654        -1.746684        -0.490252
 H         1.567595         2.086633        -1.177086
 H         1.881454         2.073721         0.645689
 H         3.975114         2.041425        -1.679285
 H         5.025568         0.529867        -1.404459
 H         3.059633        -1.416921        -0.682466
 H         2.401831        -1.356763         1.166775
 H         1.542606        -0.235698         2.163670
