19
Iteration:  3419
 C         0.029457        -0.697043        -0.322942
 C         1.381079        -0.088007        -0.126732
 C         1.764142         1.179026        -0.944817
 C         3.223445         0.834302        -0.254803
 C         4.312337         0.467606        -1.444774
 O         3.242326        -0.667600        -1.773322
 C         2.746732        -0.681481        -0.418451
 O         2.996931         1.259073         0.997001
 C         1.792732         0.459176         1.334329
 H        -0.851469        -0.391442         0.258665
 H        -0.187358        -0.719868        -1.441096
 H         0.016599        -1.836829        -0.262784
 H         1.944467         0.943729        -1.951600
 H         1.175164         2.168136        -0.756675
 H         4.391885         1.117763        -2.216505
 H         5.215830        -0.058600        -1.110252
 H         3.109967        -1.572406         0.067978
 H         2.021157        -0.451749         1.952268
 H         1.086663         1.084292         1.855912
