19
Iteration:   402charge 0 multiplicity 1
 C        -0.099130        -0.645978        -0.198988
 C         1.294862        -0.110703        -0.072510
 C         1.675472         1.239860        -0.549278
 C         3.126404         0.751065        -0.233344
 C         4.113633         0.846402        -1.462195
 O         3.319324        -0.142057        -2.172834
 C         2.691795        -0.588837        -0.792546
 O         3.335221         0.641907         1.120815
 C         1.932561        -0.004472         1.383965
 H        -0.803692         0.148931        -0.366539
 H        -0.080452        -1.295162        -1.081789
 H        -0.489062        -1.275825         0.683845
 H         1.513600         1.326393        -1.673666
 H         1.222629         2.227157        -0.073158
 H         4.219709         1.710784        -2.040174
 H         5.052680         0.433062        -1.189701
 H         3.205456        -1.468440        -0.329511
 H         2.062943        -1.033301         1.846412
 H         1.555837         0.799851         1.978171
