19
Iteration:  4343
 C        -0.002598        -0.828827        -0.308053
 C         1.371458        -0.008059        -0.076843
 C         1.763079         1.182523        -0.881328
 C         3.208385         0.760177        -0.391135
 C         4.293879         0.471172        -1.388333
 O         3.329340        -0.618028        -1.876907
 C         2.757607        -0.681130        -0.487824
 O         3.015386         1.271724         1.056216
 C         1.731725         0.480429         1.361203
 H        -0.951818        -0.399091         0.154911
 H        -0.179814        -0.735899        -1.426950
 H         0.115756        -1.864207        -0.022308
 H         1.676194         0.986753        -1.905007
 H         1.437562         2.164110        -0.530926
 H         4.511622         1.158568        -2.167152
 H         5.265358         0.033014        -0.896431
 H         3.047319        -1.519228         0.191503
 H         1.923368        -0.518970         1.839550
 H         0.909275         1.149639         1.792978
