19
Iteration:  2076charge 0 multiplicity 1
 C         0.019354        -0.694160        -0.184966
 C         1.340727        -0.046610        -0.169574
 C         1.631686         1.265227        -0.981673
 C         3.145166         0.767232        -0.370057
 C         4.249431         0.530688        -1.329432
 O         3.474078        -0.656411        -1.752100
 C         2.740848        -0.627785        -0.482930
 O         2.998536         1.185379         0.986312
 C         1.860139         0.299708         1.239968
 H        -0.751247         0.071321         0.215225
 H        -0.352745        -0.671607        -1.204062
 H        -0.058528        -1.669659         0.260307
 H         1.493378         1.313949        -2.041353
 H         1.307349         2.040951        -0.470136
 H         4.426044         1.072070        -2.200304
 H         5.063067         0.055136        -0.743436
 H         2.986117        -1.548482        -0.014922
 H         2.124669        -0.585904         1.896870
 H         1.109502         0.950506         1.727761
