19
Iteration:  4237charge 0 multiplicity 1
 C        -0.035193        -0.641104        -0.235955
 C         1.355844        -0.081549        -0.097263
 C         1.762937         1.098022        -1.003425
 C         3.183053         0.770337        -0.343980
 C         4.265560         0.606223        -1.425936
 O         3.420630        -0.612178        -1.827361
 C         2.798718        -0.666464        -0.497057
 O         2.951081         1.143964         1.085338
 C         1.754739         0.378268         1.327675
 H        -0.578858         0.307840        -0.172279
 H        -0.344708        -1.287822        -1.093393
 H        -0.335793        -1.165543         0.647849
 H         1.699831         1.014554        -2.037791
 H         1.566222         2.166239        -0.713698
 H         4.431485         1.207117        -2.357751
 H         5.165227         0.193611        -1.081198
 H         3.180958        -1.463011         0.120697
 H         2.021202        -0.510535         1.848437
 H         0.972247         0.885330         1.855422
