19
Iteration:  1530
 C        -0.090649        -0.776183        -0.266439
 C         1.290430        -0.050701        -0.118911
 C         1.829640         1.196808        -0.885516
 C         3.144026         0.793053        -0.354347
 C         4.254422         0.516065        -1.345743
 O         3.372634        -0.518097        -1.885970
 C         2.673082        -0.668518        -0.552586
 O         3.095484         1.166238         1.061769
 C         1.834756         0.341069         1.354151
 H        -0.066861        -1.485035        -1.119043
 H        -0.113642        -1.294978         0.685856
 H        -0.922730        -0.084588        -0.386067
 H         1.752647         1.118742        -1.983246
 H         1.548480         2.184865        -0.617505
 H         4.361848         1.274347        -2.249342
 H         5.207682         0.184027        -1.002284
 H         3.190991        -1.440530        -0.062394
 H         1.997011        -0.559002         1.982194
 H         1.078936         0.939260         1.802908
