19
Iteration:  4139charge 0 multiplicity 1
 C        -0.008443        -0.719584        -0.211708
 C         1.353328        -0.130791        -0.179638
 C         1.850646         1.205650        -0.897705
 C         3.216163         0.720896        -0.331370
 C         4.223234         0.490514        -1.423235
 O         3.361209        -0.560893        -1.858153
 C         2.811976        -0.718788        -0.450762
 O         2.950771         1.174725         1.075533
 C         1.729475         0.489377         1.249849
 H        -0.512838        -0.094588         0.500537
 H        -0.505299        -0.666799        -1.196745
 H        -0.038918        -1.718257         0.128256
 H         1.700892         1.126813        -1.973107
 H         1.485337         2.206541        -0.514840
 H         4.446651         1.426213        -1.996747
 H         5.103905         0.056736        -1.141022
 H         3.254540        -1.622396         0.050905
 H         1.787839        -0.295083         1.951582
 H         0.922836         1.133150         1.478060
