19
Iteration:   705charge 0 multiplicity 1
 C        -0.049936        -0.672515        -0.196487
 C         1.422578        -0.103214        -0.186136
 C         1.645331         1.218201        -0.743738
 C         3.169525         0.779088        -0.307822
 C         4.313134         0.571752        -1.298734
 O         3.195983        -0.282984        -1.965149
 C         2.682518        -0.597390        -0.722620
 O         3.115627         0.989996         1.120918
 C         1.957572         0.133491         1.285086
 H        -0.405982        -0.777253         0.863508
 H        -0.709997         0.009440        -0.751578
 H         0.038877        -1.707543        -0.675909
 H         1.580565         1.258432        -1.809589
 H         1.190796         2.010952        -0.236792
 H         4.620791         1.434289        -1.979590
 H         5.095821        -0.075496        -1.138677
 H         3.080071        -1.580669        -0.338013
 H         2.319816        -0.874177         1.361136
 H         1.264927         0.468960         2.087155
