19
Iteration:  4066
 C        -0.052808        -0.703909        -0.253168
 C         1.413605        -0.101392        -0.198379
 C         1.737694         1.175910        -0.885662
 C         3.195251         0.798312        -0.306165
 C         4.199959         0.505803        -1.364666
 O         3.401628        -0.598325        -1.857328
 C         2.736915        -0.722938        -0.492774
 O         3.021348         1.158148         1.058478
 C         1.785416         0.452043         1.240668
 H        -0.707136         0.181181        -0.201290
 H        -0.182537        -1.314503        -1.154140
 H        -0.169595        -1.304302         0.720373
 H         1.569972         1.220316        -1.924819
 H         1.375259         2.074203        -0.309668
 H         4.398049         1.168657        -2.263032
 H         5.279654         0.381982        -0.936401
 H         3.146372        -1.475441         0.213854
 H         2.072623        -0.448292         1.934788
 H         1.011074         1.132742         1.650428
