19
Iteration:   987charge 0 multiplicity 1
 C        -0.035820        -0.757952        -0.172977
 C         1.379044        -0.128419        -0.152686
 C         1.894212         1.235582        -0.913364
 C         3.183665         0.822782        -0.348725
 C         4.205677         0.642684        -1.386551
 O         3.273294        -0.455361        -1.966500
 C         2.734450        -0.676935        -0.557634
 O         3.072659         0.896069         1.129727
 C         1.741667         0.421701         1.339223
 H        -0.285450        -1.298359         0.817985
 H        -0.919243         0.044946        -0.452374
 H        -0.038648        -1.531569        -0.963586
 H         1.849528         1.195769        -1.997782
 H         1.502025         2.197003        -0.572806
 H         4.411736         1.568964        -1.876788
 H         5.240804         0.212906        -1.111290
 H         3.170215        -1.556115        -0.137634
 H         1.950987        -0.369672         2.039724
 H         1.099335         1.189159         1.783092
