19
Iteration:   357
 C         0.037846        -0.651575        -0.291534
 C         1.404439        -0.039981        -0.070417
 C         1.770641         1.318341        -0.533449
 C         3.181066         0.805035        -0.229473
 C         4.092419         0.683332        -1.510227
 O         3.105657        -0.145599        -2.139310
 C         2.703290        -0.570718        -0.779606
 O         3.148542         0.777322         1.229748
 C         2.025162        -0.135689         1.353440
 H        -0.391485        -0.382273        -1.234958
 H         0.280658        -1.717218        -0.178758
 H        -0.659754        -0.316462         0.578308
 H         1.492696         1.524754        -1.614919
 H         1.316222         2.230923         0.125800
 H         4.256270         1.599089        -2.044388
 H         4.971590         0.161447        -1.292242
 H         3.139840        -1.590615        -0.654873
 H         2.459382        -1.191523         1.339277
 H         1.238100         0.098569         2.094362
