19
Iteration:  4632charge 0 multiplicity 1
 C        -0.020998        -0.798913        -0.370755
 C         1.295023        -0.052110        -0.151758
 C         1.717119         1.271667        -0.892189
 C         3.169114         0.789359        -0.302560
 C         4.192499         0.508588        -1.390044
 O         3.365547        -0.704011        -1.813028
 C         2.749492        -0.648619        -0.384923
 O         3.156918         1.140147         1.028638
 C         1.823234         0.521870         1.282245
 H        -0.905077        -0.146072        -0.319597
 H         0.045505        -1.149154        -1.436254
 H        -0.304158        -1.745353         0.238481
 H         1.625786         1.175901        -1.975289
 H         1.257410         2.099444        -0.490580
 H         4.179775         1.328925        -2.179025
 H         5.145229         0.243792        -1.059155
 H         3.093642        -1.505481         0.155383
 H         2.140393        -0.146706         2.193065
 H         1.015007         1.184219         1.775827
