19
Iteration:  4681charge 0 multiplicity 1
 C        -0.045901        -0.761346        -0.215548
 C         1.277142        -0.032475        -0.101439
 C         1.812990         1.210438        -0.973717
 C         3.164816         0.797349        -0.349434
 C         4.260572         0.411489        -1.431008
 O         3.425428        -0.606416        -1.833107
 C         2.728776        -0.676850        -0.469914
 O         3.012644         1.255458         1.064600
 C         1.790809         0.420036         1.281514
 H        -0.917964        -0.310513         0.328677
 H        -0.393957        -0.739855        -1.275047
 H        -0.011500        -1.748390         0.166136
 H         1.719187         1.011354        -2.102237
 H         1.486483         2.279964        -0.642678
 H         4.531258         1.138602        -2.158001
 H         5.242262        -0.025275        -0.931801
 H         3.334996        -1.464494         0.054735
 H         1.840004        -0.459248         1.978024
 H         1.043040         0.937502         1.823514
