19
Iteration:   248charge 0 multiplicity 1
 C        -0.007897        -0.666359        -0.269401
 C         1.325620        -0.087137        -0.083052
 C         1.662087         1.363417        -0.400867
 C         3.151867         0.793052        -0.259150
 C         4.086108         0.789184        -1.455975
 O         3.244071        -0.143488        -2.140735
 C         2.560936        -0.517934        -0.858114
 O         3.288468         0.727666         1.157781
 C         2.120821        -0.244894         1.310688
 H        -0.358004        -1.081163         0.657163
 H        -0.702363         0.213868        -0.324047
 H        -0.370947        -1.202768        -1.212997
 H         1.336212         1.489226        -1.454087
 H         1.505989         2.248081         0.340742
 H         4.289291         1.751405        -1.965275
 H         5.108938         0.318454        -1.136050
 H         2.806974        -1.602503        -0.690063
 H         2.401377        -1.281899         1.463007
 H         1.425255         0.073407         2.063247
