19
Iteration:  2364
 C         0.001754        -0.719793        -0.209034
 C         1.281219        -0.005094        -0.183282
 C         1.757667         1.240630        -0.913752
 C         3.185519         0.772723        -0.343413
 C         4.172072         0.615413        -1.504402
 O         3.492797        -0.702603        -1.755102
 C         2.743730        -0.669922        -0.484697
 O         3.080827         1.036632         1.089014
 C         1.703078         0.459990         1.229538
 H        -0.759415        -0.046120         0.215717
 H        -0.207806        -1.203471        -1.144699
 H         0.017988        -1.474030         0.575288
 H         1.782446         1.258916        -1.978415
 H         1.338426         2.202919        -0.654424
 H         4.162440         1.279416        -2.294124
 H         5.166860         0.293948        -1.196981
 H         3.215347        -1.323226         0.223390
 H         1.685364        -0.446901         1.935442
 H         1.038399         1.202151         1.715768
