19
Iteration:   866charge 0 multiplicity 1
 C        -0.052734        -0.705657        -0.186214
 C         1.339164        -0.076828        -0.120104
 C         1.742783         1.308906        -0.772626
 C         3.146242         0.732340        -0.328288
 C         4.268699         0.692051        -1.414080
 O         3.402108        -0.484817        -1.999185
 C         2.693542        -0.670163        -0.666199
 O         3.117962         0.880311         1.159007
 C         1.789423         0.356462         1.330007
 H        -0.820869        -0.307276        -0.860609
 H         0.058029        -1.798566        -0.547887
 H        -0.366127        -0.828506         0.823653
 H         1.493762         1.430997        -1.840623
 H         1.416972         2.202679        -0.228372
 H         4.230137         1.444227        -2.152120
 H         5.368928         0.347491        -1.298806
 H         3.059579        -1.548794        -0.196559
 H         1.849895        -0.544499         1.888913
 H         1.021735         1.047438         1.575433
