19
Iteration:  4040charge 0 multiplicity 1
 C        -0.026920        -0.774300        -0.222369
 C         1.391609        -0.066911        -0.103151
 C         1.893085         1.168496        -0.995948
 C         3.274313         0.770238        -0.246488
 C         4.242279         0.566113        -1.429308
 O         3.266251        -0.547155        -1.879529
 C         2.768547        -0.705693        -0.508596
 O         3.013520         1.140495         1.101635
 C         1.660530         0.449718         1.296168
 H        -0.822188        -0.048502        -0.139386
 H        -0.140208        -1.277244        -1.203597
 H        -0.159508        -1.420544         0.567550
 H         1.804442         0.650852        -1.995884
 H         1.660512         2.209080        -0.802081
 H         4.429572         1.343800        -2.277589
 H         5.171564         0.159890        -1.170635
 H         3.176450        -1.512797         0.195744
 H         1.786943        -0.287461         2.078219
 H         0.926106         1.221785         1.543902
