19
Iteration:   489
 C         0.021732        -0.655485        -0.352220
 C         1.357668        -0.149296         0.008054
 C         1.651908         1.211439        -0.619502
 C         3.172310         0.833270        -0.278475
 C         4.191225         0.665822        -1.415269
 O         3.123205        -0.141386        -2.129344
 C         2.696854        -0.592276        -0.635134
 O         3.278284         0.853593         1.099693
 C         1.959858        -0.037267         1.393516
 H        -0.315656        -1.506504         0.157702
 H        -0.680868         0.156610        -0.209268
 H        -0.062417        -0.827185        -1.497176
 H         1.089376         1.258514        -1.625129
 H         1.211357         2.159010        -0.031449
 H         4.511881         1.521951        -2.048990
 H         5.041594         0.036993        -1.210324
 H         3.322926        -1.482238        -0.396826
 H         2.246230        -1.128612         1.797851
 H         1.347095         0.529918         2.154201
