19
Iteration:  3945charge 0 multiplicity 1
 C        -0.060632        -0.690161        -0.214642
 C         1.343808        -0.086819        -0.187133
 C         1.828026         1.130682        -0.991209
 C         3.202795         0.669390        -0.255078
 C         4.205682         0.578266        -1.383183
 O         3.384973        -0.532449        -1.820411
 C         2.800684        -0.764735        -0.469800
 O         3.015429         1.211600         1.054470
 C         1.727790         0.432158         1.230151
 H        -0.574473         0.053816         0.438130
 H        -0.548659        -0.525045        -1.232765
 H        -0.100135        -1.704449         0.348063
 H         1.867442         0.786279        -1.954854
 H         1.287994         2.007727        -0.658595
 H         4.336514         1.361486        -2.186188
 H         5.224852         0.225248        -0.947147
 H         3.292021        -1.641681        -0.034460
 H         2.076750        -0.289924         2.029794
 H         0.907000         1.058197         1.533814
