19
Iteration:  3862charge 0 multiplicity 1
 C         0.027264        -0.774871        -0.288480
 C         1.376335        -0.066669        -0.171580
 C         1.795075         1.220203        -0.926463
 C         3.196259         0.847457        -0.277401
 C         4.229210         0.393460        -1.390552
 O         3.316756        -0.565210        -1.818052
 C         2.760827        -0.733450        -0.513222
 O         3.006343         1.286317         1.031127
 C         1.773163         0.396458         1.332772
 H        -0.873979        -0.188156        -0.352779
 H         0.030473        -1.369181        -1.155599
 H        -0.140848        -1.516389         0.464434
 H         1.568006         1.399864        -1.974444
 H         1.282667         2.109871        -0.361845
 H         4.469855         1.212661        -2.168638
 H         5.155372        -0.135187        -1.026723
 H         3.116278        -1.664654         0.000642
 H         2.170682        -0.346553         2.034621
 H         0.907328         0.998898         1.780613
