19
Iteration:  1626charge 0 multiplicity 1
 C        -0.077592        -0.732212        -0.200649
 C         1.355194        -0.127245        -0.163138
 C         1.728160         1.264808        -0.945030
 C         3.133561         0.887171        -0.358358
 C         4.303284         0.435715        -1.301034
 O         3.329475        -0.522646        -1.896787
 C         2.756373        -0.699469        -0.562134
 O         3.045485         1.152118         1.104448
 C         1.857046         0.333626         1.279766
 H        -0.202086        -1.442366        -0.977867
 H        -0.228798        -1.076593         0.814555
 H        -0.669272         0.043861        -0.460974
 H         1.716143         1.186990        -2.088757
 H         1.118813         2.223826        -0.656265
 H         4.539690         1.097832        -2.099507
 H         5.190746         0.125806        -0.755674
 H         3.169572        -1.572537        -0.047498
 H         2.308402        -0.488716         1.884709
 H         1.136137         0.906646         1.900000
