19
Iteration:  4803
 C         0.003098        -0.782721        -0.383842
 C         1.221393         0.039636        -0.040502
 C         1.753990         1.206048        -0.876372
 C         3.169089         0.848796        -0.411325
 C         4.207343         0.421618        -1.485189
 O         3.428864        -0.655982        -1.799456
 C         2.802061        -0.642321        -0.420800
 O         3.088057         1.137189         1.027452
 C         1.734260         0.464465         1.365138
 H        -0.973346        -0.238849        -0.224149
 H        -0.113541        -1.082331        -1.418089
 H        -0.034982        -1.592060         0.352746
 H         1.729149         1.100073        -2.087946
 H         1.288678         2.162582        -0.528455
 H         4.431182         1.079289        -2.334570
 H         5.220721         0.199498        -1.022703
 H         3.129755        -1.316351         0.392093
 H         1.931035        -0.428997         2.080657
 H         1.180970         1.174033         2.007943
