19
Iteration:  4264
 C        -0.130493        -0.676347        -0.226534
 C         1.375800        -0.175077        -0.140593
 C         1.767262         1.034369        -0.957014
 C         3.154815         0.717861        -0.281436
 C         4.202598         0.668754        -1.300571
 O         3.422092        -0.557734        -1.851465
 C         2.802097        -0.802547        -0.577687
 O         3.121671         1.158015         1.051975
 C         1.750012         0.561119         1.247229
 H        -0.795965         0.173208         0.005626
 H        -0.415169        -1.093349        -1.187908
 H        -0.245848        -1.411746         0.640024
 H         1.751463         1.231174        -2.093164
 H         1.384990         1.984085        -0.559997
 H         4.393348         1.459017        -2.018677
 H         5.150396         0.114862        -0.999359
 H         3.200860        -1.649961         0.092006
 H         1.719914        -0.133651         2.149590
 H         0.851876         1.202742         1.431618
