19
Iteration:   209charge 0 multiplicity 1
 C        -0.057049        -0.727480        -0.199379
 C         1.368539        -0.117515        -0.135968
 C         1.743978         1.401803        -0.431525
 C         3.161634         0.798308        -0.248024
 C         4.106154         0.897997        -1.500419
 O         3.188783        -0.036496        -2.141948
 C         2.609694        -0.507160        -0.840647
 O         3.358716         0.435029         1.171093
 C         1.950026        -0.119504         1.306720
 H        -0.610379        -0.184730         0.601656
 H        -0.524146        -0.677951        -1.209080
 H        -0.045627        -1.769125         0.145437
 H         1.545661         1.635375        -1.476895
 H         1.353927         2.144684         0.184891
 H         4.159684         1.783658        -2.103814
 H         5.109303         0.503449        -1.426561
 H         3.023846        -1.494443        -0.598141
 H         2.042616        -1.046153         1.934151
 H         1.347750         0.629261         1.895610
