19
Iteration:  4815
 C        -0.025627        -0.775829        -0.319135
 C         1.331361        -0.024321        -0.104515
 C         1.730364         1.247674        -0.860622
 C         3.136401         0.811165        -0.353814
 C         4.270499         0.573646        -1.462951
 O         3.435723        -0.732814        -1.769423
 C         2.693745        -0.600724        -0.467717
 O         3.122105         1.030079         1.019356
 C         1.713396         0.546042         1.340422
 H        -0.896227        -0.230330         0.024980
 H        -0.068840        -1.103643        -1.349391
 H         0.057079        -1.741339         0.225738
 H         1.589611         0.921576        -1.998382
 H         1.337099         2.290523        -0.712603
 H         4.307621         1.199589        -2.393718
 H         5.245855         0.217896        -1.082729
 H         3.191164        -1.378665         0.157581
 H         1.832291        -0.229131         2.154644
 H         1.034316         1.383269         1.550530
