19
Iteration:  3248
 C         0.049917        -0.793272        -0.267822
 C         1.373479        -0.078084        -0.137564
 C         1.803893         1.209116        -0.964057
 C         3.157226         0.771557        -0.308548
 C         4.205025         0.515811        -1.435646
 O         3.343534        -0.657037        -1.786516
 C         2.705362        -0.644091        -0.391363
 O         3.120017         1.109792         1.047519
 C         1.681819         0.546607         1.252901
 H        -0.687166        -0.363762         0.413232
 H        -0.357885        -0.723863        -1.293560
 H        -0.000688        -1.851528        -0.155265
 H         1.761225         1.376842        -2.070746
 H         1.296969         2.113721        -0.490289
 H         4.404012         1.108188        -2.419738
 H         5.207971         0.196437        -1.090183
 H         3.261045        -1.332643         0.294317
 H         1.594076        -0.213580         2.080076
 H         1.138560         1.530901         1.416292
