19
Iteration:  3944
 C        -0.062775        -0.691957        -0.215261
 C         1.342867        -0.096046        -0.185152
 C         1.829365         1.141632        -0.989033
 C         3.192105         0.667497        -0.253784
 C         4.207871         0.574184        -1.378533
 O         3.383372        -0.527124        -1.819810
 C         2.816404        -0.769157        -0.471605
 O         3.024694         1.209759         1.052186
 C         1.723577         0.437807         1.226052
 H        -0.572279         0.044512         0.425883
 H        -0.579053        -0.552597        -1.227409
 H        -0.112733        -1.663996         0.344472
 H         1.845912         0.782186        -1.983060
 H         1.313678         2.004188        -0.662901
 H         4.284835         1.384973        -2.218764
 H         5.214336         0.229398        -0.925095
 H         3.285354        -1.678431        -0.021314
 H         2.054745        -0.291844         2.061839
 H         0.897841         1.075450         1.526236
