19
Iteration:  2631
 C         0.009912        -0.776926        -0.390625
 C         1.307101        -0.037996        -0.083521
 C         1.822296         1.206003        -0.876151
 C         3.138509         0.838346        -0.368251
 C         4.207658         0.487065        -1.363968
 O         3.297006        -0.623601        -1.773128
 C         2.718963        -0.655303        -0.461418
 O         3.082772         1.223077         0.987295
 C         1.810653         0.353593         1.345006
 H        -0.874804        -0.187117        -0.342630
 H        -0.105348        -1.167145        -1.434892
 H        -0.122380        -1.641240         0.358084
 H         1.664941         1.080373        -1.910525
 H         1.615896         2.247195        -0.639237
 H         4.486547         1.156820        -2.177941
 H         5.195571         0.099616        -1.001343
 H         3.244591        -1.370051         0.195784
 H         2.290541        -0.413004         1.967839
 H         1.095109         1.051170         1.778855
