19
Iteration:   329charge 0 multiplicity 1
 C        -0.052757        -0.835109        -0.276391
 C         1.302790        -0.069504        -0.087590
 C         1.762452         1.432947        -0.445131
 C         3.164969         0.836528        -0.272202
 C         4.102449         0.797444        -1.464433
 O         3.225825        -0.205952        -2.088747
 C         2.608840        -0.457301        -0.756494
 O         3.405454         0.553802         1.049568
 C         1.885704        -0.013814         1.363150
 H        -0.199434        -1.230546        -1.314049
 H        -0.163576        -1.547190         0.550469
 H        -0.878509        -0.130494        -0.181956
 H         1.566770         1.765389        -1.454156
 H         1.387023         2.163948         0.151501
 H         4.102314         1.781763        -1.994033
 H         5.227387         0.445791        -1.276934
 H         3.051657        -1.408982        -0.448674
 H         1.991626        -0.984351         1.778561
 H         1.280781         0.701745         1.908503
