19
Iteration:   465charge 0 multiplicity 1
 C        -0.006140        -0.784769        -0.286438
 C         1.341773        -0.116740        -0.097162
 C         1.805538         1.342830        -0.605524
 C         3.179697         0.762307        -0.234745
 C         4.156430         0.713562        -1.410711
 O         3.108545        -0.169613        -2.096576
 C         2.634277        -0.619633        -0.806836
 O         3.176829         0.862412         1.178048
 C         2.052835         0.008318         1.396926
 H        -0.491412        -1.093155         0.627421
 H        -0.635319        -0.022239        -0.734376
 H        -0.026346        -1.611546        -1.046844
 H         1.684373         1.615426        -1.667824
 H         1.449906         2.227043         0.010278
 H         4.461814         1.605819        -2.113329
 H         5.054009         0.100501        -1.229074
 H         3.066419        -1.617505        -0.721785
 H         2.312210        -1.045412         1.819715
 H         1.334222         0.514078         2.115817
