19
Iteration:  3602charge 0 multiplicity 1
 C         0.010820        -0.820254        -0.140121
 C         1.287506         0.011480        -0.204287
 C         1.858684         1.281599        -1.003197
 C         3.137743         0.803634        -0.289397
 C         4.213942         0.518240        -1.395546
 O         3.463509        -0.693115        -1.818019
 C         2.769748        -0.641861        -0.495237
 O         3.036344         1.082448         1.066041
 C         1.641954         0.497251         1.253951
 H        -0.529158        -0.164086         0.602259
 H        -0.551606        -0.798906        -1.064151
 H         0.102754        -1.857018         0.225235
 H         1.776714         1.200476        -2.037804
 H         1.510302         2.287522        -0.712773
 H         4.317267         1.238205        -2.292539
 H         5.200798         0.323591        -1.100331
 H         3.074935        -1.594848        -0.021801
 H         1.751311        -0.463260         1.753842
 H         1.059744         1.216686         1.797254
