19
Iteration:   457charge 0 multiplicity 1
 C        -0.051451        -0.829360        -0.236729
 C         1.355395        -0.105987        -0.159593
 C         1.840670         1.389237        -0.581858
 C         3.218832         0.807234        -0.215562
 C         4.166023         0.748859        -1.420041
 O         3.145033        -0.220410        -2.119769
 C         2.603286        -0.601656        -0.818152
 O         3.263864         0.866130         1.189608
 C         1.915215        -0.027804         1.342865
 H        -0.490488        -0.968124         0.710790
 H        -0.648996        -0.117257        -0.794105
 H         0.084931        -1.806462        -0.789822
 H         1.461893         1.520194        -1.643938
 H         1.599838         2.232672         0.198606
 H         4.224716         1.639626        -1.973164
 H         5.107117         0.280710        -1.308767
 H         2.806750        -1.670004        -0.520992
 H         2.204524        -1.056928         1.799218
 H         1.286355         0.476376         2.098056
