19
Iteration:  2563
 C        -0.071931        -0.724306        -0.136833
 C         1.280297        -0.026680        -0.216664
 C         1.715200         1.215899        -0.941533
 C         3.107584         0.763841        -0.399472
 C         4.306983         0.539712        -1.363381
 O         3.512090        -0.622448        -1.782928
 C         2.692302        -0.666086        -0.562248
 O         3.087556         1.075677         1.082095
 C         1.764445         0.450578         1.236723
 H        -0.968759        -0.089744        -0.139400
 H        -0.343034        -1.467447        -0.935668
 H         0.167831        -1.320491         0.784938
 H         1.529329         1.112622        -2.085486
 H         1.418221         2.271008        -0.560008
 H         4.437476         1.255463        -2.164468
 H         5.403485         0.434566        -0.902953
 H         3.057722        -1.432580         0.134125
 H         1.849451        -0.461921         1.870157
 H         1.072947         1.230083         1.641797
