19
Iteration:  1861
 C        -0.008399        -0.799717        -0.322039
 C         1.256713        -0.042492        -0.109404
 C         1.762677         1.367731        -0.866715
 C         3.121818         0.866923        -0.373258
 C         4.207709         0.460736        -1.329676
 O         3.441627        -0.745975        -1.787603
 C         2.734690        -0.627574        -0.550205
 O         3.072613         1.153869         0.961673
 C         1.797159         0.428741         1.365713
 H        -0.640815        -0.919856         0.548935
 H        -0.614601        -0.499772        -1.186740
 H         0.278799        -1.821283        -0.618541
 H         1.620307         1.105505        -1.945531
 H         1.446841         2.466382        -0.599794
 H         4.668014         1.041788        -2.303584
 H         4.975238        -0.060799        -0.830921
 H         3.182508        -1.107645         0.337463
 H         2.024529        -0.400212         2.115024
 H         1.116179         1.238860         1.755139
