19
Iteration:  4656charge 0 multiplicity 1
 C         0.106991        -0.688884        -0.407259
 C         1.347731        -0.086858        -0.086374
 C         1.752737         1.126466        -0.909709
 C         3.137467         0.836332        -0.370411
 C         4.258542         0.450500        -1.341731
 O         3.254333        -0.643396        -1.786918
 C         2.707079        -0.655685        -0.486929
 O         3.063988         1.253334         0.973691
 C         1.835739         0.445856         1.381850
 H        -0.746530        -0.122384         0.060108
 H        -0.124625        -0.801772        -1.497347
 H        -0.072760        -1.716807         0.053142
 H         1.580238         0.930634        -1.883773
 H         1.234481         2.027891        -0.526708
 H         4.664607         1.156522        -2.092712
 H         5.022174        -0.086978        -0.789197
 H         3.210224        -1.461070         0.015656
 H         2.157423        -0.342689         2.235502
 H         0.977601         0.952968         1.911983
