19
Iteration:  1236charge 0 multiplicity 1
 C        -0.068265        -0.858462        -0.224960
 C         1.309453        -0.148155        -0.095667
 C         1.862294         1.323247        -0.890703
 C         3.187042         0.762579        -0.280290
 C         4.285886         0.599973        -1.419967
 O         3.369331        -0.596351        -1.910357
 C         2.681710        -0.614139        -0.561199
 O         3.075657         1.010262         1.075560
 C         1.695680         0.516103         1.308073
 H        -0.633008        -0.582863        -1.104750
 H         0.235300        -1.822387        -0.208253
 H        -0.627392        -0.627085         0.671344
 H         1.985358         1.223608        -1.979060
 H         1.454920         2.302643        -0.535742
 H         4.411234         1.381170        -2.187116
 H         5.175293         0.135748        -1.108029
 H         3.247014        -1.456304        -0.093190
 H         1.875166        -0.095141         2.233989
 H         1.062015         1.360366         1.474336
