19
Iteration:   954charge 0 multiplicity 1
 C        -0.007070        -0.790464        -0.271884
 C         1.315106        -0.003793        -0.199780
 C         1.616537         1.405114        -0.776635
 C         3.185362         0.808331        -0.336943
 C         4.300507         0.542120        -1.364436
 O         3.363154        -0.570864        -1.900980
 C         2.658256        -0.593104        -0.565299
 O         3.187379         1.005985         1.075689
 C         1.825192         0.307568         1.296033
 H        -0.560423        -0.997282         0.729278
 H        -0.893992        -0.419143        -1.082659
 H         0.248453        -1.823907        -0.657684
 H         1.385547         1.511370        -1.848901
 H         1.182090         2.121264        -0.064177
 H         4.373409         1.415076        -2.017102
 H         5.215573        -0.142673        -1.069539
 H         2.916288        -1.503965        -0.083705
 H         2.093377        -0.676719         1.717083
 H         1.264118         0.871474         2.036271
