19
Iteration:  3799charge 0 multiplicity 1
 C        -0.110404        -0.758774        -0.158683
 C         1.315458        -0.070064        -0.229434
 C         1.745748         1.356232        -0.956775
 C         3.125863         0.847231        -0.348561
 C         4.210150         0.568303        -1.400669
 O         3.594025        -0.731256        -1.732561
 C         2.712409        -0.671823        -0.516396
 O         3.069590         1.101997         1.028952
 C         1.787596         0.402830         1.225601
 H        -0.730462        -0.180697         0.595995
 H        -0.581182        -0.788664        -1.157267
 H         0.209566        -1.711568         0.236115
 H         1.524371         1.094884        -2.002411
 H         1.329698         2.164816        -0.518342
 H         4.049036         1.328900        -2.243048
 H         5.169540         0.294872        -1.042415
 H         2.827043        -1.576351         0.180573
 H         1.937588        -0.285600         2.093103
 H         0.970113         1.058753         1.562773
