19
Iteration:  1462
 C        -0.114921        -0.757212        -0.226822
 C         1.298607        -0.059759        -0.241062
 C         1.772149         1.219864        -0.928046
 C         3.150238         0.777340        -0.342212
 C         4.198108         0.610645        -1.446354
 O         3.507076        -0.635155        -1.837932
 C         2.660089        -0.686101        -0.530773
 O         3.181070         1.048267         1.189666
 C         1.774479         0.466193         1.303878
 H        -0.677664        -0.546071        -1.094367
 H         0.212080        -1.819491        -0.167906
 H        -0.728422        -0.536141         0.601219
 H         1.545188         1.266035        -2.015384
 H         1.309750         2.244863        -0.639095
 H         4.085189         1.460388        -2.254074
 H         5.234190         0.426487        -1.206257
 H         3.041436        -1.362006         0.202721
 H         1.825969        -0.397131         2.025485
 H         1.041024         1.216769         1.689730
