19
Iteration:  4888charge 0 multiplicity 1
 C        -0.033649        -0.730247        -0.263456
 C         1.282021        -0.041281        -0.172448
 C         1.674908         1.143009        -0.892730
 C         3.080533         0.841365        -0.397345
 C         4.325885         0.472262        -1.241006
 O         3.435903        -0.658299        -1.827745
 C         2.693221        -0.649288        -0.576194
 O         3.065787         1.267614         0.964209
 C         1.870805         0.353987         1.310089
 H        -0.598775         0.122569         0.319111
 H        -0.516834        -0.958344        -1.243795
 H         0.002119        -1.476700         0.520647
 H         1.648457         1.157089        -1.987794
 H         1.354506         2.092532        -0.646736
 H         4.686856         1.146145        -1.970819
 H         5.094649        -0.029531        -0.566274
 H         3.009824        -1.388503         0.125780
 H         2.212487        -0.527714         1.955359
 H         1.108426         0.860501         1.929030
