19
Iteration:   381
 C        -0.157867        -0.677108        -0.276663
 C         1.360603        -0.229208        -0.115253
 C         1.800860         1.290216        -0.580062
 C         3.186168         0.690982        -0.243450
 C         4.190505         0.822097        -1.424134
 O         3.106361        -0.095118        -2.080157
 C         2.687762        -0.645491        -0.793430
 O         3.207529         0.852064         1.147074
 C         2.085318        -0.074928         1.376482
 H        -0.602912         0.188581        -0.777111
 H        -0.259176        -1.604832        -0.871381
 H        -0.633892        -0.738531         0.800185
 H         1.387762         1.536276        -1.609649
 H         1.610816         2.227650         0.135567
 H         4.311543         1.730805        -1.915502
 H         5.121966         0.227796        -1.284405
 H         3.111868        -1.697583        -0.691058
 H         2.515724        -1.050042         1.675761
 H         1.325334         0.375603         1.971887
