19
Iteration:  2440
 C         0.016741        -0.767038        -0.267789
 C         1.333330        -0.043180        -0.201918
 C         1.774331         1.254950        -0.891223
 C         3.159651         0.840948        -0.378260
 C         4.223573         0.496889        -1.320407
 O         3.371096        -0.663270        -1.822749
 C         2.731252        -0.650005        -0.510256
 O         3.052586         1.135829         1.026837
 C         1.771563         0.438989         1.342403
 H        -0.830555        -0.027221         0.008954
 H        -0.169095        -1.298385        -1.177877
 H        -0.004351        -1.441070         0.607323
 H         1.662090         1.084670        -1.975083
 H         1.192151         2.291433        -0.737261
 H         4.382926         1.064433        -2.236356
 H         5.263110         0.186905        -0.968599
 H         3.155444        -1.463274         0.068608
 H         2.100366        -0.478244         1.797655
 H         1.097059         1.083883         1.906504
