19
Iteration:  1224charge 0 multiplicity 1
 C        -0.033792        -0.809143        -0.180125
 C         1.341739        -0.116268        -0.139883
 C         1.859775         1.162994        -0.872984
 C         3.190338         0.791776        -0.281393
 C         4.191027         0.558926        -1.373834
 O         3.366159        -0.545341        -1.939887
 C         2.775694        -0.650374        -0.636756
 O         3.127573         1.076992         1.123485
 C         1.667772         0.495176         1.305829
 H        -0.436628        -0.510085        -1.146987
 H        -0.201556        -1.846586        -0.205646
 H        -0.753532        -0.468632         0.564107
 H         1.814956         1.091400        -1.951941
 H         1.501049         2.133082        -0.589398
 H         4.331842         1.432121        -2.078221
 H         5.105741         0.209767        -1.117349
 H         3.026108        -1.553105        -0.050640
 H         1.534516        -0.112239         2.226391
 H         1.027890         1.339381         1.393200
