19
Iteration:   846
 C        -0.035740        -0.763548        -0.194253
 C         1.241812        -0.034701        -0.155614
 C         1.695616         1.331480        -0.809474
 C         3.169685         0.828400        -0.316934
 C         4.201629         0.579720        -1.375958
 O         3.388565        -0.435173        -1.916558
 C         2.662758        -0.538059        -0.641161
 O         3.192786         0.901171         1.053901
 C         1.853679         0.181188         1.347443
 H        -0.478764        -0.551071        -1.155732
 H         0.150943        -1.838220        -0.128013
 H        -0.660935        -0.447263         0.557604
 H         1.786524         1.353308        -1.883604
 H         1.369801         2.294757        -0.522719
 H         4.486422         1.282200        -2.209863
 H         5.125554         0.233893        -0.889333
 H         2.997807        -1.462233        -0.120655
 H         2.013432        -0.820987         1.836483
 H         1.189145         0.908844         1.898017
