19
Iteration:  4982charge 0 multiplicity 1
 C        -0.028831        -0.813059        -0.248631
 C         1.342557        -0.087062        -0.048798
 C         1.699306         1.252064        -0.953546
 C         3.133977         0.807747        -0.359159
 C         4.325149         0.503031        -1.299308
 O         3.370636        -0.640222        -1.881458
 C         2.663888        -0.635065        -0.519919
 O         3.086033         1.183357         1.059516
 C         1.820765         0.454187         1.284441
 H        -0.806486        -0.171230        -0.042002
 H        -0.018231        -1.007194        -1.328922
 H        -0.160556        -1.739973         0.330907
 H         1.670211         0.982454        -2.008475
 H         1.387602         2.369184        -0.888154
 H         4.642699         1.133213        -2.187576
 H         5.078812        -0.051647        -0.824409
 H         3.192442        -1.483483        -0.008562
 H         1.786312        -0.331956         1.980471
 H         1.191814         1.252445         1.700330
