19
Iteration:  2304charge 0 multiplicity 1
 C         0.057229        -0.800532        -0.333801
 C         1.404092        -0.110760        -0.048438
 C         1.755500         1.245573        -0.963003
 C         3.120157         0.835415        -0.350879
 C         4.264505         0.419648        -1.346845
 O         3.290991        -0.576807        -1.812372
 C         2.678527        -0.650864        -0.485293
 O         3.031828         1.217126         1.000692
 C         1.841746         0.438224         1.344303
 H        -0.761801        -0.304766         0.260973
 H        -0.363930        -0.558494        -1.354440
 H        -0.050244        -1.918316        -0.208210
 H         1.750876         0.868276        -2.055756
 H         1.148523         2.189572        -0.544215
 H         4.864346         1.146868        -2.077257
 H         5.048009        -0.141389        -0.814205
 H         3.147404        -1.545231         0.022624
 H         2.145854        -0.268263         2.047584
 H         1.194720         1.193787         1.748767
