19
Iteration:  2353charge 0 multiplicity 1
 C        -0.021714        -0.763082        -0.219247
 C         1.356922        -0.051270        -0.180980
 C         1.781460         1.287579        -0.962568
 C         3.092019         0.827813        -0.307478
 C         4.190598         0.503496        -1.481918
 O         3.463091        -0.702273        -1.760994
 C         2.747732        -0.585853        -0.508533
 O         3.078278         1.069287         1.094789
 C         1.745024         0.437125         1.309540
 H        -0.920964        -0.180323         0.013212
 H        -0.318665        -0.963164        -1.246889
 H         0.071842        -1.719473         0.259201
 H         1.740877         1.093905        -1.993436
 H         1.626089         2.224960        -0.486364
 H         3.968417         1.180760        -2.200113
 H         5.286605         0.485743        -1.396590
 H         3.001247        -1.419271         0.102085
 H         1.880183        -0.318518         2.173187
 H         1.056323         1.289876         1.485098
