19
Iteration:  3448
 C        -0.055790        -0.737694        -0.259076
 C         1.313253        -0.103990        -0.156062
 C         1.790969         1.207828        -0.949240
 C         3.116386         0.800711        -0.339668
 C         4.258379         0.474526        -1.307810
 O         3.410079        -0.634673        -1.872788
 C         2.726131        -0.745085        -0.482632
 O         3.093837         1.260611         0.947955
 C         1.746212         0.478253         1.393330
 H        -0.790685        -0.345322         0.417508
 H        -0.450322        -0.735776        -1.246426
 H         0.164392        -1.762258         0.025569
 H         1.858903         0.997985        -1.998691
 H         1.410441         2.195219        -0.598069
 H         4.571847         1.237301        -2.159000
 H         5.071148         0.067734        -0.668304
 H         3.207682        -1.552712         0.091481
 H         1.897513        -0.348723         2.122480
 H         1.003849         1.162545         1.848825
