19
Iteration:  3729charge 0 multiplicity 1
 C        -0.033658        -0.794835        -0.319345
 C         1.344948        -0.081913        -0.077631
 C         1.700785         1.158663        -0.935428
 C         3.220433         0.728399        -0.275889
 C         4.264006         0.540607        -1.342048
 O         3.312566        -0.567391        -1.901017
 C         2.770274        -0.716277        -0.456570
 O         3.098812         1.143780         0.998475
 C         1.789969         0.555266         1.318373
 H        -0.876264        -0.180783        -0.277186
 H         0.004079        -1.265518        -1.280675
 H        -0.043072        -1.546056         0.468274
 H         1.606785         1.020566        -1.990942
 H         1.380514         2.154017        -0.475682
 H         4.361636         1.448335        -1.979357
 H         5.207360         0.145334        -0.842155
 H         3.173008        -1.591583         0.073371
 H         1.654408        -0.068546         2.228553
 H         1.024095         1.403704         1.406942
