19
Iteration:   634
 C         0.002075        -0.754029        -0.256867
 C         1.342118        -0.060153        -0.167833
 C         1.803962         1.360689        -0.613118
 C         3.143650         0.878003        -0.283168
 C         4.017360         0.781391        -1.551509
 O         3.308759        -0.419366        -1.925951
 C         2.670718        -0.548528        -0.641761
 O         3.241061         0.728681         1.167846
 C         1.873011         0.090254         1.259781
 H        -0.627931         0.063300        -0.627016
 H        -0.080808        -1.578798        -0.940178
 H        -0.313798        -1.061468         0.671163
 H         1.786230         1.506350        -1.725069
 H         1.399081         2.296841        -0.060144
 H         4.029233         1.514186        -2.305575
 H         5.021210         0.359634        -1.278743
 H         3.077288        -1.498184        -0.288235
 H         2.172199        -0.896088         1.748655
 H         1.261579         0.790457         1.820917
