19
Iteration:   482charge 0 multiplicity 1
 C         0.003265        -0.643918        -0.362670
 C         1.390580        -0.123873        -0.036698
 C         1.661202         1.223869        -0.612811
 C         3.157757         0.777493        -0.302644
 C         4.158702         0.618700        -1.432182
 O         3.117829        -0.068465        -2.122153
 C         2.708056        -0.608592        -0.648877
 O         3.222625         0.849264         1.110497
 C         2.003087        -0.016422         1.418309
 H        -0.242468        -1.466023         0.394138
 H        -0.779313         0.162169        -0.406838
 H         0.184040        -1.119038        -1.300658
 H         1.268637         1.133804        -1.626912
 H         1.368507         2.070569        -0.052970
 H         4.465769         1.501543        -1.914930
 H         5.042229        -0.010956        -1.173019
 H         3.241700        -1.473756        -0.202095
 H         2.346374        -0.953795         1.803717
 H         1.414384         0.368483         2.220437
