19
Iteration:  1542charge 0 multiplicity 1
 C         0.037278        -0.743685        -0.197779
 C         1.291937        -0.016111        -0.093694
 C         1.741446         1.262674        -0.948303
 C         3.186406         0.731382        -0.353678
 C         4.238727         0.590162        -1.454546
 O         3.408430        -0.566394        -1.874485
 C         2.705141        -0.632149        -0.463687
 O         3.052588         1.013860         1.069702
 C         1.772894         0.381860         1.312094
 H         0.149177        -1.513151        -1.032465
 H        -0.519107        -1.274398         0.565805
 H        -0.748958        -0.027213        -0.576460
 H         1.610016         1.208051        -2.021704
 H         1.499683         2.159236        -0.476989
 H         4.435954         1.459401        -2.228255
 H         5.170235         0.294987        -0.971094
 H         2.917366        -1.534606         0.053763
 H         2.016834        -0.481237         1.942925
 H         1.161601         1.079603         1.847202
