19
Iteration:  3840charge 0 multiplicity 1
 C         0.026902        -0.735930        -0.292963
 C         1.356271        -0.086671        -0.038117
 C         1.760043         1.083889        -0.902396
 C         3.169932         0.807962        -0.376028
 C         4.279558         0.532963        -1.370604
 O         3.352966        -0.585904        -1.926565
 C         2.753958        -0.705698        -0.450698
 O         3.009486         1.152550         1.077232
 C         1.751113         0.512868         1.318366
 H        -0.708927         0.013760        -0.029053
 H        -0.200873        -1.016733        -1.269285
 H        -0.270132        -1.605003         0.251430
 H         1.676693         0.770648        -1.922623
 H         1.520237         2.251980        -0.893570
 H         4.406076         1.422838        -2.140586
 H         5.213874        -0.000286        -0.993444
 H         3.358570        -1.532227        -0.001962
 H         1.863574        -0.171510         2.191026
 H         0.921293         1.308607         1.579407
