19
Iteration:   789
 C        -0.072990        -0.694469        -0.306372
 C         1.362080        -0.110720        -0.073752
 C         1.777181         1.215836        -0.732493
 C         3.238071         0.749572        -0.283719
 C         4.197918         0.718820        -1.471917
 O         3.214530        -0.424561        -2.059760
 C         2.792632        -0.639155        -0.598670
 O         3.128260         0.974111         1.173900
 C         1.841249         0.227044         1.380556
 H         0.061341        -1.651162        -0.813661
 H        -0.745410        -0.942557         0.556225
 H        -0.658129        -0.152786        -0.935382
 H         1.707934         1.256418        -1.837480
 H         1.500870         2.160804        -0.230766
 H         4.359619         1.540236        -2.120758
 H         5.131467         0.083916        -1.223003
 H         3.227491        -1.572134        -0.260385
 H         1.916306        -0.637929         2.096888
 H         1.133856         0.942928         1.808806
