19
Iteration:  2355charge 0 multiplicity 1
 C        -0.008891        -0.740498        -0.210668
 C         1.339448        -0.043856        -0.183075
 C         1.769058         1.284707        -0.956526
 C         3.094065         0.803648        -0.310043
 C         4.185659         0.523321        -1.491439
 O         3.473666        -0.703709        -1.754429
 C         2.751040        -0.583512        -0.509027
 O         3.081235         1.061507         1.098404
 C         1.733167         0.436696         1.288483
 H        -0.885829        -0.190528        -0.019557
 H        -0.378548        -1.020760        -1.221679
 H         0.088007        -1.728345         0.346028
 H         1.789009         1.102490        -1.996477
 H         1.626377         2.173136        -0.502831
 H         3.975035         1.236651        -2.245891
 H         5.302696         0.421379        -1.364125
 H         3.087205        -1.429605         0.131963
 H         1.845140        -0.345318         2.144610
 H         1.067594         1.307361         1.527322
