19
Iteration:  3291
 C        -0.021700        -0.712468        -0.251436
 C         1.267423        -0.021256        -0.100669
 C         1.767937         1.173602        -0.979854
 C         3.154492         0.793242        -0.411682
 C         4.210732         0.512040        -1.355756
 O         3.491153        -0.695575        -1.774832
 C         2.681565        -0.640534        -0.456206
 O         3.108718         1.157846         0.959524
 C         1.745076         0.440233         1.347511
 H        -0.972681        -0.228229        -0.028588
 H        -0.193830        -0.959563        -1.336069
 H         0.001465        -1.629144         0.339382
 H         1.457063         1.273104        -2.012478
 H         1.497804         2.142326        -0.485413
 H         4.316260         1.340150        -2.167118
 H         5.274599         0.322570        -0.989245
 H         2.979910        -1.541685         0.159406
 H         2.081774        -0.378500         2.014603
 H         1.051900         1.143475         1.876601
