19
Iteration:  3713charge 0 multiplicity 1
 C         0.071002        -0.806637        -0.242490
 C         1.299345        -0.056666        -0.086988
 C         1.793192         1.235134        -0.883110
 C         3.154940         0.770782        -0.343409
 C         4.235290         0.511689        -1.507026
 O         3.436247        -0.621026        -1.810031
 C         2.734287        -0.655832        -0.532198
 O         3.059015         1.076409         1.113282
 C         1.650767         0.561584         1.316251
 H        -0.859698        -0.130581        -0.444546
 H         0.128350        -1.326738        -1.258740
 H        -0.287044        -1.468241         0.576514
 H         1.667469         1.080013        -2.041300
 H         1.390361         2.189740        -0.555182
 H         4.260317         1.210898        -2.344162
 H         5.278084         0.185218        -1.393873
 H         3.180570        -1.471656         0.053774
 H         1.805777        -0.203018         2.108116
 H         1.002164         1.347138         1.633125
