19
Iteration:    64charge 0 multiplicity 1
 C        -0.076944        -0.668105        -0.163992
 C         1.402716        -0.153806        -0.074100
 C         1.716205         1.338216        -0.399407
 C         3.193746         0.731287        -0.262171
 C         4.091056         0.969004        -1.400278
 O         3.035400         0.161548        -2.173587
 C         2.732639        -0.572535        -0.911788
 O         3.335772         0.432870         1.078674
 C         2.023868        -0.245765         1.305009
 H        -0.156574        -1.668333         0.162192
 H        -0.746116         0.069308         0.287108
 H        -0.315348        -0.724364        -1.298410
 H         1.434047         1.636167        -1.381855
 H         1.484679         2.011795         0.396562
 H         4.214700         1.944295        -1.773263
 H         4.999163         0.314385        -1.239246
 H         3.311265        -1.566652        -0.755455
 H         2.179247        -1.260909         1.826895
 H         1.409584         0.377650         1.993715
