19
Iteration:  2291
 C        -0.023485        -0.804670        -0.243244
 C         1.279318        -0.072367        -0.189346
 C         1.751477         1.180281        -0.902923
 C         3.144726         0.837264        -0.329680
 C         4.286456         0.427696        -1.370381
 O         3.366409        -0.620258        -1.888247
 C         2.748606        -0.613378        -0.537343
 O         3.043326         1.214552         1.081722
 C         1.814571         0.485680         1.355294
 H        -0.766935        -0.314095         0.401639
 H        -0.319437        -0.781034        -1.354663
 H         0.135074        -1.917717         0.099593
 H         1.769910         1.154845        -2.014428
 H         1.448237         2.264445        -0.721792
 H         4.670118         1.009613        -2.316090
 H         5.091242        -0.029377        -0.701410
 H         3.145564        -1.433917         0.159794
 H         1.994512        -0.379564         1.990692
 H         1.006803         1.059144         1.801883
