19
Iteration:  3576charge 0 multiplicity 1
 C         0.027202        -0.824921        -0.298439
 C         1.248349         0.050150        -0.100330
 C         1.734068         1.323795        -0.916792
 C         3.126415         0.762681        -0.319362
 C         4.273873         0.519722        -1.422029
 O         3.448964        -0.774445        -1.751394
 C         2.680259        -0.621930        -0.547269
 O         3.067302         1.111974         1.080877
 C         1.810288         0.505157         1.262472
 H        -0.942889        -0.317658         0.135257
 H        -0.060990        -1.033234        -1.401903
 H         0.208476        -1.798300         0.280260
 H         1.491302         1.271601        -1.985768
 H         1.406755         2.275142        -0.523078
 H         4.197819         1.237742        -2.236291
 H         5.342040         0.308680        -1.335325
 H         3.136931        -1.351932         0.183669
 H         1.925415        -0.355737         1.919024
 H         0.985293         1.204983         1.629555
