19
Iteration:  1213
 C        -0.026316        -0.720920        -0.228131
 C         1.371590        -0.087033        -0.135966
 C         1.742792         1.149059        -0.915990
 C         3.180361         0.731245        -0.307299
 C         4.224500         0.569570        -1.394816
 O         3.374496        -0.473423        -1.927292
 C         2.743662        -0.764481        -0.492292
 O         3.099134         1.071643         1.144650
 C         1.735071         0.491528         1.255392
 H        -0.498244        -0.540934        -1.181990
 H         0.141286        -1.756002        -0.009413
 H        -0.640923        -0.235703         0.527175
 H         1.634785         1.022780        -1.982544
 H         1.338128         2.064230        -0.523698
 H         4.318105         1.368408        -2.184946
 H         5.118897         0.230207        -1.019906
 H         3.305871        -1.652278        -0.158139
 H         1.784672        -0.323404         2.002526
 H         1.015854         1.245171         1.514671
