19
Iteration:  3425charge 0 multiplicity 1
 C        -0.006345        -0.737969        -0.326122
 C         1.342135        -0.138333        -0.095962
 C         1.751959         1.148788        -0.960429
 C         3.278024         0.803225        -0.243731
 C         4.310192         0.439113        -1.395527
 O         3.252766        -0.617670        -1.780468
 C         2.706368        -0.674861        -0.432079
 O         2.979637         1.291319         1.023159
 C         1.865391         0.491135         1.236098
 H        -0.809128        -0.300635         0.281129
 H        -0.157144        -0.511060        -1.373291
 H         0.064656        -1.798899        -0.209467
 H         1.758317         0.886360        -2.057746
 H         1.367836         2.087913        -0.610835
 H         4.361963         1.321854        -2.224226
 H         5.238203        -0.093984        -1.109469
 H         3.022120        -1.614970         0.115572
 H         2.068928        -0.378568         1.897336
 H         1.142159         1.078419         1.856545
