19
Iteration:   686
 C        -0.074301        -0.703283        -0.230659
 C         1.331275        -0.099561        -0.118201
 C         1.761506         1.243398        -0.790740
 C         3.164127         0.768494        -0.286888
 C         4.170881         0.646551        -1.335787
 O         3.255750        -0.246857        -2.087364
 C         2.678011        -0.667586        -0.665131
 O         3.191497         0.925196         1.123697
 C         1.936388         0.121760         1.408371
 H        -0.837990        -0.475317         0.546345
 H        -0.542421        -0.293379        -1.126953
 H        -0.057583        -1.945157        -0.281184
 H         1.628154         1.175051        -1.892858
 H         1.379809         2.213410        -0.317936
 H         4.497760         1.521325        -2.059707
 H         5.145861         0.112396        -0.944425
 H         3.252382        -1.556499        -0.399627
 H         2.235655        -0.724615         2.059533
 H         1.280566         0.828885         1.890011
