19
Iteration:  1794charge 0 multiplicity 1
 C         0.014324        -0.663893        -0.179753
 C         1.334264        -0.045906        -0.123425
 C         1.760535         1.123611        -0.916294
 C         3.175939         0.678317        -0.319076
 C         4.311083         0.581498        -1.414456
 O         3.439254        -0.580655        -1.866194
 C         2.731718        -0.713207        -0.513059
 O         3.002386         1.075150         1.041992
 C         1.690951         0.503189         1.293883
 H        -0.721535         0.155734        -0.002942
 H        -0.272863        -1.102278        -1.100124
 H        -0.057766        -1.431556         0.568544
 H         1.741546         0.894727        -2.006019
 H         1.319603         2.183600        -0.661659
 H         4.301590         1.516736        -2.160752
 H         5.282577         0.219454        -1.103396
 H         3.136378        -1.601906        -0.044440
 H         1.701212        -0.257701         2.139487
 H         1.033586         1.364372         1.455630
