19
Iteration:   479
 C        -0.003817        -0.653837        -0.352151
 C         1.396555        -0.116960        -0.045676
 C         1.679202         1.234086        -0.608640
 C         3.152477         0.747989        -0.313933
 C         4.148610         0.616901        -1.439466
 O         3.117718        -0.060859        -2.110014
 C         2.707114        -0.608840        -0.673782
 O         3.193396         0.843905         1.127013
 C         2.027579         0.004472         1.418061
 H        -0.257630        -1.362432         0.390076
 H        -0.778355         0.097513        -0.462314
 H         0.211614        -1.281180        -1.264603
 H         1.422477         1.180134        -1.736971
 H         1.361403         2.175814         0.025639
 H         4.459827         1.508297        -1.900281
 H         4.972898         0.001462        -1.147430
 H         3.214812        -1.496329        -0.230851
 H         2.479373        -1.020438         1.831086
 H         1.390410         0.415524         2.234647
