19
Iteration:  2035charge 0 multiplicity 1
 C         0.020842        -0.776600        -0.254560
 C         1.325764        -0.039548        -0.095680
 C         1.739849         1.190170        -0.959018
 C         3.181542         0.802727        -0.297046
 C         4.302651         0.556270        -1.466554
 O         3.387420        -0.592206        -1.868882
 C         2.670435        -0.734554        -0.477586
 O         3.086680         1.065754         1.128814
 C         1.757367         0.520600         1.296305
 H        -0.905231        -0.142559        -0.546332
 H         0.060283        -1.439848        -1.114767
 H        -0.293637        -1.412862         0.588613
 H         1.549966         0.907009        -2.038348
 H         1.343529         2.265433        -0.726064
 H         4.192099         1.431102        -2.156869
 H         5.356284         0.396384        -1.074691
 H         3.088444        -1.579824         0.184797
 H         1.654599        -0.195323         2.083063
 H         1.145419         1.383366         1.526035
