19
Iteration:  2228
 C        -0.121608        -0.709580        -0.156195
 C         1.332692        -0.057707        -0.130865
 C         1.629703         1.128524        -0.923711
 C         3.215568         0.741955        -0.328894
 C         4.318680         0.567580        -1.402440
 O         3.462868        -0.584860        -1.838690
 C         2.756797        -0.656274        -0.503733
 O         3.093456         1.102803         1.044169
 C         1.725752         0.415132         1.261710
 H        -0.729790         0.168278        -0.352058
 H        -0.032301        -1.301369        -1.022014
 H        -0.712501        -1.184821         0.565904
 H         1.745269         0.954029        -2.047938
 H         1.299183         2.245949        -0.724866
 H         4.430966         1.283595        -2.244459
 H         5.289618         0.368202        -1.147519
 H         3.217761        -1.490520         0.002007
 H         1.975463        -0.245534         2.039159
 H         1.081454         1.176087         1.687314
