19
Iteration:  1414charge 0 multiplicity 1
 C        -0.037106        -0.740769        -0.311629
 C         1.332306        -0.057476        -0.094103
 C         1.726670         1.163415        -0.875796
 C         3.165006         0.842278        -0.312089
 C         4.265974         0.435782        -1.442843
 O         3.377142        -0.528010        -1.938988
 C         2.766464        -0.591078        -0.495402
 O         3.029605         1.149462         1.084243
 C         1.807238         0.331147         1.387475
 H        -0.362706        -0.774589        -1.382770
 H        -0.039202        -1.686972         0.162141
 H        -0.761627        -0.119607         0.251007
 H         1.761140         1.039396        -1.972668
 H         1.230431         2.216996        -0.755385
 H         4.586120         1.094803        -2.184061
 H         5.202203        -0.043302        -0.965583
 H         3.126388        -1.542606         0.022953
 H         2.054968        -0.416885         2.181864
 H         1.128277         1.115689         1.880461
