19
Iteration:  4596
 C         0.004769        -0.724559        -0.129618
 C         1.345428        -0.003587        -0.140747
 C         1.799865         1.265922        -0.985709
 C         3.204505         0.772282        -0.285329
 C         4.184644         0.570650        -1.434866
 O         3.450246        -0.700790        -1.847052
 C         2.758261        -0.643740        -0.474759
 O         3.025521         1.032735         1.076319
 C         1.696290         0.474574         1.227188
 H        -0.857631        -0.034233        -0.162559
 H        -0.132877        -1.373338        -1.007426
 H        -0.051124        -1.314426         0.807282
 H         1.822462         1.206859        -2.144021
 H         1.274026         2.208976        -0.734409
 H         4.236673         1.441145        -2.074766
 H         5.219026         0.241812        -1.190288
 H         3.203587        -1.495918         0.136273
 H         1.665647        -0.488133         1.750368
 H         0.841381         1.174275         1.470708
