19
Iteration:  1004
 C        -0.051439        -0.695641        -0.194154
 C         1.346084        -0.082960        -0.138157
 C         1.738929         1.162560        -0.849889
 C         3.208710         0.620309        -0.253479
 C         4.256586         0.645332        -1.388734
 O         3.330605        -0.410427        -1.949358
 C         2.789601        -0.707030        -0.583818
 O         3.125485         1.046485         1.109868
 C         1.731125         0.369451         1.259754
 H        -0.255367        -1.429749         0.544251
 H        -0.708841         0.037957         0.036543
 H        -0.321166        -1.183624        -1.147477
 H         1.636119         1.137718        -1.963702
 H         1.350244         2.100509        -0.363873
 H         4.214309         1.471272        -2.206120
 H         5.200092         0.162289        -1.235420
 H         3.257238        -1.635541        -0.151921
 H         1.750934        -0.433064         2.052113
 H         1.102091         1.272679         1.480146
