19
Iteration:  2540charge 0 multiplicity 1
 C        -0.009546        -0.754536        -0.138231
 C         1.316683        -0.031179        -0.129180
 C         1.756104         1.266008        -0.987857
 C         3.062609         0.861062        -0.386698
 C         4.250260         0.459687        -1.221967
 O         3.477160        -0.664591        -1.873052
 C         2.710354        -0.673777        -0.560665
 O         3.008837         1.185534         1.013873
 C         1.820985         0.378439         1.259215
 H        -0.720638         0.084948         0.117461
 H        -0.441865        -0.896111        -1.145186
 H         0.059206        -1.680579         0.462207
 H         1.745772         1.120986        -2.158434
 H         1.365679         2.343062        -0.633359
 H         4.588168         1.165176        -1.982680
 H         5.281525        -0.002042        -0.818900
 H         3.036941        -1.487324         0.110340
 H         2.197420        -0.494962         1.821681
 H         0.975063         0.866591         1.785392
