19
Iteration:  4660charge 0 multiplicity 1
 C         0.070606        -0.715999        -0.380600
 C         1.368981        -0.072926        -0.093201
 C         1.749101         1.138812        -0.915731
 C         3.167493         0.816146        -0.367216
 C         4.287006         0.449865        -1.336387
 O         3.251129        -0.657978        -1.834836
 C         2.727066        -0.611572        -0.469070
 O         3.017895         1.242004         0.984924
 C         1.822404         0.437045         1.405227
 H        -0.745287        -0.096764         0.043614
 H        -0.133411        -0.648874        -1.461101
 H         0.001291        -1.669568         0.044304
 H         1.556543         0.868368        -2.027975
 H         1.166426         2.078993        -0.583286
 H         4.651954         1.136926        -2.071348
 H         5.165719        -0.127850        -0.812523
 H         3.138860        -1.527411         0.066404
 H         2.276810        -0.133603         2.150269
 H         1.053904         0.904792         1.962917
