19
Iteration:  2811charge 0 multiplicity 1
 C         0.007103        -0.782445        -0.266075
 C         1.347064        -0.139676        -0.152787
 C         1.743857         1.126666        -0.965618
 C         3.209439         0.730115        -0.273158
 C         4.285912         0.487787        -1.372677
 O         3.329355        -0.434780        -1.865053
 C         2.758014        -0.693770        -0.468361
 O         3.030245         1.098043         1.046987
 C         1.746123         0.557012         1.326230
 H        -0.846217         0.008232        -0.160540
 H         0.068193        -1.371490        -1.208910
 H        -0.266362        -1.401079         0.590183
 H         1.821636         1.085146        -2.052150
 H         1.352035         1.943365        -0.502589
 H         4.262969         1.188833        -2.305554
 H         5.318418         0.193741        -1.251085
 H         3.144957        -1.607571         0.007188
 H         1.770483        -0.157489         2.249902
 H         1.202697         1.500696         1.623650
