19
Iteration:  3459charge 0 multiplicity 1
 C        -0.037749        -0.767003        -0.170728
 C         1.306610        -0.049813        -0.109803
 C         1.720795         1.235422        -0.963164
 C         3.143597         0.843280        -0.379627
 C         4.263325         0.514971        -1.282757
 O         3.469809        -0.710726        -1.831750
 C         2.723503        -0.636047        -0.572262
 O         3.042587         1.085237         1.013545
 C         1.758642         0.502328         1.271409
 H        -0.766785        -0.207962         0.386655
 H        -0.285254        -0.728221        -1.202586
 H         0.017789        -1.797563         0.196602
 H         1.700152         1.147848        -2.035094
 H         1.211112         2.222942        -0.794890
 H         4.682471         1.249316        -2.123388
 H         5.201177         0.134344        -0.845704
 H         3.011620        -1.460137         0.105497
 H         2.027869        -0.229001         2.061656
 H         1.210397         1.374892         1.654500
