19
Iteration:  3690
 C         0.022532        -0.762928        -0.240272
 C         1.325180         0.000226        -0.265486
 C         1.781215         1.310999        -0.960142
 C         3.158735         0.835439        -0.331796
 C         4.138351         0.564551        -1.420880
 O         3.399522        -0.748015        -1.762781
 C         2.802710        -0.599494        -0.430677
 O         3.060221         1.105263         1.124347
 C         1.767029         0.332880         1.248865
 H        -1.011402        -0.151808        -0.301192
 H        -0.098509        -1.452571        -1.127183
 H        -0.087151        -1.304126         0.722213
 H         1.891069         1.264180        -2.074123
 H         1.353748         2.232928        -0.628033
 H         4.032491         1.210660        -2.335799
 H         5.163310         0.376466        -1.310045
 H         3.192580        -1.327404         0.336693
 H         1.897503        -0.437428         2.013386
 H         1.118157         1.110402         1.558965
