19
Iteration:   798charge 0 multiplicity 1
 C        -0.049502        -0.721619        -0.314256
 C         1.324243        -0.125672        -0.030906
 C         1.806072         1.244887        -0.692608
 C         3.247964         0.807175        -0.312990
 C         4.226507         0.591184        -1.506977
 O         3.260628        -0.345106        -1.998995
 C         2.714887        -0.715056        -0.650373
 O         3.114718         1.025031         1.151379
 C         1.804218         0.210366         1.372403
 H         0.085907        -1.579824        -0.993763
 H        -0.551317        -1.011076         0.634027
 H        -0.613517         0.089691        -0.806854
 H         1.351280         1.134432        -1.695447
 H         1.411060         2.240605        -0.297294
 H         4.390305         1.464171        -2.059910
 H         5.269197         0.116479        -1.308227
 H         3.235782        -1.529129        -0.213993
 H         2.196229        -0.634901         1.864434
 H         1.079483         0.760999         1.898374
