19
Iteration:  4871
 C        -0.109659        -0.716402        -0.097486
 C         1.359245        -0.053384        -0.110187
 C         1.778633         1.216744        -1.029436
 C         3.161778         0.792184        -0.343392
 C         4.312591         0.424798        -1.315409
 O         3.494320        -0.581199        -1.929109
 C         2.706577        -0.669787        -0.494926
 O         2.928090         1.209425         1.017732
 C         1.810928         0.409787         1.292194
 H        -0.963161        -0.253285         0.308762
 H        -0.385509        -0.774337        -1.133944
 H        -0.132051        -1.748765         0.357034
 H         1.622647         1.007358        -2.145680
 H         1.379357         2.263899        -0.665096
 H         4.781287         1.101284        -2.132275
 H         5.158513        -0.024082        -0.815203
 H         3.275993        -1.528543        -0.012500
 H         1.966797        -0.455305         1.958928
 H         1.050479         0.941224         1.871758
