19
Iteration:   595
 C        -0.029619        -0.698264        -0.229350
 C         1.373478        -0.167125        -0.080962
 C         1.735654         1.202812        -0.629343
 C         3.148451         0.758035        -0.270913
 C         4.146982         0.641430        -1.363030
 O         3.246633        -0.156296        -2.152900
 C         2.642445        -0.653217        -0.760642
 O         3.140766         0.959378         1.114163
 C         2.049666         0.084575         1.418697
 H        -0.318023        -0.350910        -1.290208
 H        -0.178896        -1.829072        -0.316496
 H        -0.886203        -0.172550         0.329902
 H         1.528495         1.219335        -1.669491
 H         1.483393         2.082828        -0.152195
 H         4.668464         1.411707        -2.058958
 H         4.944116         0.071808        -0.853725
 H         2.956836        -1.663818        -0.453545
 H         2.293405        -0.825539         1.878428
 H         1.258869         0.618655         2.017888
