19
Iteration:  2153
 C         0.017919        -0.837315        -0.253717
 C         1.308414        -0.046965        -0.116483
 C         1.819763         1.325778        -0.951936
 C         3.155414         0.833076        -0.386887
 C         4.190528         0.508807        -1.378203
 O         3.410004        -0.699295        -1.832702
 C         2.736351        -0.628443        -0.510308
 O         3.099927         1.071456         1.113686
 C         1.677378         0.518794         1.286762
 H        -0.839451        -0.375027         0.412465
 H        -0.276079        -0.874663        -1.311801
 H         0.071975        -1.887537         0.093242
 H         1.690598         1.245335        -2.049374
 H         1.398013         2.279120        -0.558075
 H         4.199689         1.168584        -2.271054
 H         5.288952         0.116360        -1.153525
 H         3.305266        -1.309505         0.068257
 H         1.791077        -0.334944         2.071885
 H         1.097351         1.351473         1.764133
