19
Iteration:  1221
 C        -0.023348        -0.779207        -0.183121
 C         1.348021        -0.086867        -0.149089
 C         1.832768         1.145766        -0.879187
 C         3.192752         0.783594        -0.302312
 C         4.181822         0.553969        -1.370754
 O         3.369426        -0.520333        -1.941997
 C         2.776487        -0.689030        -0.604261
 O         3.129888         1.082917         1.141441
 C         1.681483         0.492318         1.298314
 H        -0.410709        -0.570140        -1.212926
 H        -0.253428        -1.937008        -0.218106
 H        -0.734254        -0.406575         0.621377
 H         1.716448         1.053324        -1.932112
 H         1.485732         2.069645        -0.578763
 H         4.284260         1.418632        -2.105049
 H         5.168815         0.199178        -1.057006
 H         3.103598        -1.610225        -0.084041
 H         1.555110        -0.183890         2.128462
 H         0.976794         1.340620         1.364366
