19
Iteration:  1423
 C         0.001861        -0.689983        -0.289456
 C         1.337951        -0.058629        -0.104534
 C         1.770562         1.211892        -0.914108
 C         3.163810         0.764333        -0.336630
 C         4.220005         0.542702        -1.447017
 O         3.384362        -0.598708        -1.932670
 C         2.752820        -0.640071        -0.467147
 O         3.052987         1.127299         1.099372
 C         1.768673         0.372511         1.381823
 H        -0.493869        -0.674928        -1.334052
 H         0.054689        -1.758348        -0.006278
 H        -0.890513        -0.277748         0.341203
 H         1.617850         0.958339        -1.958779
 H         1.353328         2.113424        -0.491455
 H         4.478775         1.329315        -2.125837
 H         5.067066         0.056346        -0.935782
 H         3.441234        -1.398381         0.012598
 H         2.029059        -0.404364         2.105776
 H         0.912168         0.989844         1.679561
