19
Iteration:   889
 C        -0.091974        -0.695516        -0.215306
 C         1.387699        -0.121672        -0.169105
 C         1.881439         1.199656        -0.803653
 C         3.177653         0.759822        -0.238699
 C         4.107497         0.674915        -1.444330
 O         3.332658        -0.402361        -1.957068
 C         2.781470        -0.706744        -0.575519
 O         3.145513         0.960422         1.107947
 C         1.747023         0.294340         1.325654
 H        -0.806510         0.120836        -0.417684
 H        -0.358555        -1.365658        -1.099809
 H        -0.307712        -1.184105         0.687580
 H         1.711511         1.181895        -1.869725
 H         1.382644         2.053612        -0.411575
 H         4.236447         1.598007        -2.053387
 H         5.150989         0.193645        -1.289553
 H         3.188740        -1.631001        -0.173698
 H         1.913084        -0.504236         2.041190
 H         1.107560         1.169941         1.456143
