19
Iteration:  1388
 C         0.002032        -0.771620        -0.285504
 C         1.323767        -0.024439        -0.161148
 C         1.719201         1.265386        -0.897991
 C         3.127914         0.755701        -0.343885
 C         4.218681         0.499898        -1.249261
 O         3.310484        -0.524635        -1.892603
 C         2.707317        -0.644114        -0.509215
 O         3.108658         1.166575         1.005340
 C         1.885632         0.297672         1.281177
 H        -0.023179        -1.444472        -1.206686
 H        -0.057829        -1.443455         0.657509
 H        -0.880014        -0.020784        -0.205513
 H         1.588534         1.330283        -1.965694
 H         1.423558         2.099848        -0.419987
 H         4.770390         1.252760        -1.906632
 H         4.978594        -0.032302        -0.733228
 H         3.038138        -1.519289         0.074269
 H         2.219228        -0.489812         1.938754
 H         1.172417         0.882335         1.776799
