19
Iteration:  4880
 C        -0.066498        -0.693502        -0.157441
 C         1.262012        -0.085913        -0.166557
 C         1.740379         1.226451        -0.951615
 C         3.125774         0.811117        -0.409953
 C         4.300151         0.393129        -1.299658
 O         3.497246        -0.593418        -1.909310
 C         2.737738        -0.671092        -0.500574
 O         2.978772         1.248431         1.011273
 C         1.818732         0.384379         1.339425
 H        -0.810380        -0.014490         0.334753
 H        -0.351175        -0.966644        -1.155041
 H        -0.006302        -1.700660         0.309205
 H         1.686393         0.976462        -2.088312
 H         1.247623         2.203539        -0.686453
 H         4.712243         1.111170        -1.981836
 H         5.060085        -0.006596        -0.597660
 H         3.117898        -1.541883         0.065864
 H         2.318406        -0.467087         1.836127
 H         1.141734         0.979582         1.912165
