19
Iteration:   415
 C        -0.010841        -0.699029        -0.164748
 C         1.366253        -0.107016        -0.052676
 C         1.665969         1.386832        -0.596765
 C         3.120549         0.835160        -0.351715
 C         4.097709         0.889896        -1.448924
 O         3.343781        -0.266151        -2.134274
 C         2.637065        -0.506173        -0.787228
 O         3.307065         0.498927         1.147621
 C         1.897292         0.010482         1.373005
 H        -0.739594         0.139323         0.110358
 H        -0.308607        -1.089158        -1.169307
 H        -0.161893        -1.503321         0.612421
 H         1.493413         1.408814        -1.708928
 H         1.298723         2.293565        -0.044230
 H         4.109625         1.790079        -2.000641
 H         5.151086         0.603532        -1.204085
 H         3.123680        -1.473050        -0.525442
 H         1.948146        -0.822489         2.049239
 H         1.146234         0.618837         1.838027
