19
Iteration:  1955charge 0 multiplicity 1
 C        -0.030338        -0.707133        -0.228931
 C         1.294994        -0.045195        -0.155909
 C         1.727486         1.274274        -0.978886
 C         3.065536         0.802754        -0.383760
 C         4.213961         0.597979        -1.367651
 O         3.477557        -0.716155        -1.751016
 C         2.662932        -0.626111        -0.510373
 O         3.100383         1.114520         1.009492
 C         1.870975         0.347211         1.274139
 H        -0.904956        -0.120257         0.347581
 H        -0.301336        -0.816775        -1.307676
 H        -0.034998        -1.725456         0.176650
 H         1.710586         1.149860        -2.039805
 H         1.405050         2.214690        -0.614516
 H         4.578797         1.321210        -2.030355
 H         4.988178         0.224473        -0.512123
 H         3.091728        -1.357263         0.214945
 H         2.232935        -0.500341         1.881565
 H         1.076136         0.930022         1.790937
