19
Iteration:  2911
 C        -0.098902        -0.806939        -0.302536
 C         1.368877        -0.142921        -0.059782
 C         1.779036         1.119791        -0.960164
 C         3.157304         0.797880        -0.399006
 C         4.308475         0.592827        -1.380358
 O         3.327273        -0.566169        -1.838435
 C         2.740710        -0.737780        -0.510197
 O         3.096037         1.143914         1.096985
 C         1.777504         0.557244         1.349110
 H        -0.997236        -0.348678         0.252862
 H        -0.134528        -0.617051        -1.380472
 H         0.001644        -1.843619         0.003858
 H         1.709993         1.100718        -1.975439
 H         1.289430         1.976694        -0.653568
 H         4.437379         1.411384        -2.158998
 H         5.278681         0.178132        -0.985359
 H         3.128569        -1.548207         0.087107
 H         1.813206        -0.064206         2.278251
 H         1.059062         1.369649         1.383957
