19
Iteration:  1974
 C         0.001835        -0.736532        -0.259123
 C         1.310145         0.037874        -0.136835
 C         1.704663         1.288319        -0.926787
 C         3.152810         0.877426        -0.376760
 C         4.246266         0.452041        -1.329438
 O         3.439836        -0.665557        -1.807186
 C         2.707687        -0.641041        -0.519338
 O         3.011843         1.138494         1.000724
 C         1.801736         0.316471         1.339009
 H        -0.817389        -0.085486        -0.111824
 H         0.053239        -1.223479        -1.265114
 H        -0.085686        -1.547854         0.513210
 H         1.551900         1.063910        -1.962793
 H         1.434431         2.237902        -0.664559
 H         4.376138         1.044753        -2.253749
 H         5.253600         0.210602        -1.000577
 H         3.189886        -1.387585         0.050773
 H         2.097057        -0.631422         1.873632
 H         1.368013         1.041665         2.065708
