19
Iteration:   262
 C        -0.099872        -0.614390        -0.203592
 C         1.389682        -0.142943        -0.179277
 C         1.705957         1.366199        -0.520671
 C         3.179680         0.781515        -0.244696
 C         4.135889         0.789641        -1.443665
 O         3.112602        -0.085305        -2.124796
 C         2.702675        -0.573407        -0.816755
 O         3.197308         0.688851         1.189749
 C         2.103739        -0.195704         1.329242
 H        -0.242791        -1.537879         0.335771
 H        -0.702907         0.235266         0.148726
 H        -0.294333        -0.968049        -1.258395
 H         1.524336         1.829847        -1.482147
 H         1.303775         1.979164         0.231621
 H         4.212403         1.695682        -2.026025
 H         5.160135         0.197071        -1.391525
 H         3.218192        -1.524721        -0.529757
 H         2.603827        -1.158679         1.475264
 H         1.593774         0.090428         2.234873
