19
Iteration:  1233charge 0 multiplicity 1
 C        -0.066093        -0.847527        -0.216921
 C         1.322933        -0.172556        -0.099272
 C         1.870488         1.292227        -0.884412
 C         3.187574         0.772775        -0.248653
 C         4.260214         0.595813        -1.410210
 O         3.366542        -0.599694        -1.919962
 C         2.703899        -0.593636        -0.608572
 O         3.089196         1.028227         1.071822
 C         1.674560         0.505014         1.314117
 H        -0.630977        -0.447006        -1.080753
 H         0.234954        -1.979540        -0.159004
 H        -0.753009        -0.536693         0.645633
 H         2.032957         1.201402        -1.914785
 H         1.518162         2.176602        -0.599035
 H         4.434897         1.450390        -2.181338
 H         5.150154         0.139937        -1.133644
 H         3.164294        -1.466977        -0.073536
 H         1.782237         0.000243         2.260356
 H         1.084293         1.395290         1.482853
