19
Iteration:  2381
 C        -0.067793        -0.660073        -0.112605
 C         1.372085        -0.068594        -0.166736
 C         1.757704         1.192534        -0.971885
 C         3.113091         0.823149        -0.359117
 C         4.265670         0.586964        -1.338882
 O         3.462898        -0.636365        -1.856903
 C         2.752435        -0.698798        -0.474932
 O         3.058730         1.061875         1.023008
 C         1.755752         0.428841         1.236410
 H        -0.900444         0.038905        -0.229039
 H        -0.284969        -1.285945        -1.025949
 H        -0.192573        -1.369382         0.736301
 H         1.652805         0.924886        -2.059263
 H         1.297313         2.123599        -0.525636
 H         4.263854         1.358932        -2.234136
 H         5.264026         0.446318        -0.872684
 H         2.983052        -1.659197         0.063926
 H         1.918987        -0.357804         1.940097
 H         1.025179         1.142727         1.630044
