19
Iteration:  1482charge 0 multiplicity 1
 C        -0.052289        -0.745200        -0.206579
 C         1.280467        -0.012913        -0.062464
 C         1.754885         1.255243        -0.885666
 C         3.176581         0.828272        -0.355393
 C         4.236968         0.565471        -1.383524
 O         3.437067        -0.638768        -1.871686
 C         2.794182        -0.602542        -0.555937
 O         3.030247         1.019570         0.994559
 C         1.769453         0.386478         1.324564
 H        -0.370300        -0.540036        -1.200229
 H         0.090615        -1.826196        -0.080019
 H        -0.716750        -0.360863         0.537325
 H         1.663738         1.023114        -1.997677
 H         1.256408         2.360916        -0.786472
 H         4.552709         1.268088        -2.125704
 H         5.149974         0.179279        -0.863015
 H         3.251985        -1.485724        -0.013518
 H         1.908079        -0.457744         2.078095
 H         0.968243         1.068369         1.813411
