19
Iteration:  2943charge 0 multiplicity 1
 C         0.103942        -0.823171        -0.241606
 C         1.386474        -0.021377        -0.168095
 C         1.756289         1.237486        -0.950513
 C         3.146165         0.802783        -0.368393
 C         4.266143         0.488821        -1.406269
 O         3.319208        -0.590097        -1.868232
 C         2.656710        -0.689660        -0.496061
 O         3.082773         1.140177         1.162241
 C         1.725976         0.492860         1.297568
 H        -0.881943        -0.241358        -0.170490
 H         0.023752        -1.406083        -1.193737
 H         0.264354        -1.672819         0.413345
 H         1.714800         1.232999        -1.982950
 H         1.309093         2.067629        -0.482774
 H         4.461894         1.269536        -2.263036
 H         5.217410         0.027339        -0.995695
 H         3.002523        -1.533829         0.087389
 H         1.718880        -0.201665         2.117624
 H         0.990391         1.229569         1.598971
