19
Iteration:  4932
 C        -0.009826        -0.721203        -0.302426
 C         1.344963        -0.081422        -0.127429
 C         1.849273         1.188688        -0.879502
 C         3.221916         0.779900        -0.308498
 C         4.203636         0.618507        -1.516399
 O         3.404446        -0.755778        -1.821295
 C         2.734092        -0.601716        -0.542233
 O         3.052804         1.110721         1.113126
 C         1.667907         0.502562         1.362835
 H        -0.953076        -0.007933        -0.173769
 H         0.102560        -1.295175        -1.267038
 H        -0.013047        -1.529041         0.441592
 H         1.509720         0.946253        -1.926594
 H         1.377420         2.088879        -0.735721
 H         4.034180         1.300099        -2.313403
 H         5.267562         0.336628        -1.185294
 H         3.102792        -1.402254         0.086054
 H         1.818590        -0.252065         2.246314
 H         1.051504         1.329083         1.756119
