19
Iteration:  1897charge 0 multiplicity 1
 C         0.022514        -0.713211        -0.222259
 C         1.392093        -0.066599        -0.171281
 C         1.793985         1.178475        -1.012728
 C         3.206571         0.724902        -0.266284
 C         4.207524         0.521231        -1.349970
 O         3.334641        -0.573735        -1.813322
 C         2.732626        -0.719032        -0.487102
 O         3.046987         1.115203         1.062912
 C         1.696654         0.510130         1.247105
 H        -0.479990        -0.610877         0.762997
 H        -0.694987        -0.275475        -1.017197
 H         0.254032        -1.826406        -0.386678
 H         1.889968         0.957315        -2.060191
 H         1.384257         2.125004        -0.871073
 H         4.357895         1.425455        -2.066187
 H         5.227265         0.131851        -1.042819
 H         3.282119        -1.529301        -0.035174
 H         1.918715        -0.126108         2.141594
 H         0.882577         1.254356         1.564204
