19
Iteration:  1144charge 0 multiplicity 1
 C        -0.022550        -0.746291        -0.229662
 C         1.336402        -0.081217        -0.063267
 C         1.748136         1.316579        -0.855001
 C         3.125145         0.794970        -0.377288
 C         4.231973         0.600182        -1.346757
 O         3.400696        -0.561949        -1.841055
 C         2.688203        -0.659808        -0.592012
 O         3.124206         1.033975         1.009859
 C         1.790224         0.312891         1.263740
 H        -0.014697        -1.657797        -0.906524
 H        -0.255938        -1.080009         0.890374
 H        -0.710422        -0.007339        -0.784229
 H         1.464648         1.278621        -1.897483
 H         1.586063         2.235994        -0.404540
 H         4.324894         1.344554        -2.195507
 H         5.119456         0.184901        -0.953557
 H         2.939804        -1.465313         0.150078
 H         2.098863        -0.447101         1.961195
 H         1.035200         1.033167         1.669992
