19
Iteration:  2661charge 0 multiplicity 1
 C         0.045613        -0.799446        -0.255017
 C         1.310166         0.045669        -0.163411
 C         1.641635         1.305838        -0.927040
 C         3.145473         0.840929        -0.344015
 C         4.289449         0.434398        -1.320638
 O         3.424064        -0.671015        -1.771057
 C         2.693343        -0.628563        -0.572456
 O         3.120226         1.084453         1.016991
 C         1.728334         0.424611         1.288667
 H        -0.761417        -0.353594         0.359300
 H        -0.504034        -0.915210        -1.199825
 H         0.399667        -1.764322         0.056218
 H         1.511509         1.034726        -2.041912
 H         1.363410         2.365275        -0.485840
 H         4.191673         1.176705        -2.080513
 H         5.392729         0.155848        -1.008145
 H         3.190495        -1.295634         0.151930
 H         1.964029        -0.274915         2.062030
 H         1.050657         1.194445         1.608330
