19
Iteration:   768
 C         0.028525        -0.703558        -0.292367
 C         1.372727        -0.125419        -0.186693
 C         1.758464         1.287315        -0.769406
 C         3.163073         0.795514        -0.271213
 C         4.057197         0.718576        -1.430262
 O         3.307343        -0.393687        -1.920943
 C         2.681284        -0.693466        -0.637372
 O         3.238654         0.783421         1.144374
 C         1.843667         0.319696         1.330322
 H        -0.036957        -1.787972        -0.320962
 H        -0.620260        -0.360043         0.583513
 H        -0.498518        -0.352224        -1.083523
 H         1.667809         1.253635        -1.859517
 H         1.290303         2.187764        -0.379450
 H         3.943956         1.584869        -2.049949
 H         5.168023         0.445680        -1.246266
 H         3.203137        -1.513784        -0.126924
 H         1.897504        -0.569774         2.067378
 H         1.149808         1.106707         1.754541
