19
Iteration:  2121charge 0 multiplicity 1
 C        -0.067943        -0.759460        -0.199534
 C         1.354114        -0.108493        -0.146764
 C         1.778542         1.171997        -0.988457
 C         3.163829         0.746213        -0.340232
 C         4.266315         0.532867        -1.347054
 O         3.408932        -0.533283        -1.803099
 C         2.732128        -0.717992        -0.481457
 O         3.081312         1.106971         1.012107
 C         1.702140         0.518106         1.262952
 H        -0.717471        -0.238434         0.608776
 H        -0.558358        -0.377218        -1.091567
 H         0.171377        -1.814327        -0.134751
 H         1.683454         1.029549        -2.059964
 H         1.414265         2.071338        -0.653988
 H         4.248334         1.372193        -2.041642
 H         5.288298         0.080334        -1.029118
 H         3.227158        -1.506506         0.073388
 H         1.952611        -0.307695         2.008887
 H         1.051925         1.332620         1.691785
