19
Iteration:   129
 C         0.076018        -0.683403        -0.253835
 C         1.380315        -0.056826        -0.111586
 C         1.642046         1.466779        -0.339671
 C         3.098827         0.889183        -0.266697
 C         4.051797         0.890089        -1.415837
 O         3.151183        -0.085161        -2.136240
 C         2.615730        -0.440597        -0.822746
 O         3.338084         0.444280         1.049018
 C         2.076323        -0.323808         1.275400
 H        -0.159381        -0.955966        -1.272552
 H        -0.090350        -1.563172         0.413882
 H        -0.733829         0.100388         0.171745
 H         1.347300         1.751310        -1.327300
 H         1.375180         2.126322         0.476628
 H         4.145690         1.764706        -2.039518
 H         4.984769         0.262629        -1.118544
 H         2.953991        -1.511686        -0.507882
 H         2.299117        -1.393152         1.583107
 H         1.512441         0.198302         2.053168
