19
Iteration:  2619charge 0 multiplicity 1
 C        -0.019930        -0.727481        -0.370358
 C         1.379499        -0.104044        -0.089990
 C         1.750262         1.220753        -0.931675
 C         3.211229         0.724090        -0.278942
 C         4.232920         0.493742        -1.403130
 O         3.297514        -0.591818        -1.824938
 C         2.767180        -0.659410        -0.428170
 O         3.049513         1.237059         1.003966
 C         1.807905         0.426757         1.326914
 H        -0.733084         0.054491        -0.408260
 H         0.233776        -1.290781        -1.315296
 H        -0.272570        -1.562814         0.370148
 H         1.636623         0.967269        -1.997944
 H         1.266253         2.136733        -0.453813
 H         4.137960         1.231260        -2.138838
 H         5.236627         0.090688        -0.994987
 H         3.083095        -1.580909         0.078002
 H         1.923440        -0.423548         1.978762
 H         1.140268         0.988903         1.953037
