19
Iteration:  3177charge 0 multiplicity 1
 C        -0.082096        -0.675761        -0.105498
 C         1.278925        -0.065933        -0.189555
 C         1.653404         1.210001        -0.907970
 C         3.038963         0.819764        -0.436841
 C         4.289330         0.564070        -1.354349
 O         3.551519        -0.686192        -1.760986
 C         2.739829        -0.643110        -0.516845
 O         3.146460         1.081865         0.970126
 C         1.739980         0.406004         1.247770
 H        -0.815227         0.155572        -0.302250
 H        -0.158854        -1.362590        -0.998999
 H        -0.411482        -1.403875         0.705478
 H         1.717545         1.272130        -2.002521
 H         1.230380         2.136277        -0.678910
 H         4.581832         1.279416        -2.092209
 H         5.312013         0.330922        -0.752650
 H         3.183137        -1.397708         0.158711
 H         2.005065        -0.391710         1.923208
 H         1.046463         1.086987         1.680864
