19
Iteration:  1348charge 0 multiplicity 1
 C        -0.092664        -0.726681        -0.160915
 C         1.285811        -0.056782        -0.151946
 C         1.715033         1.209779        -0.869963
 C         3.229451         0.793921        -0.292855
 C         4.278769         0.652988        -1.500603
 O         3.424677        -0.566686        -1.871512
 C         2.779184        -0.613657        -0.496495
 O         3.136603         0.961339         1.113255
 C         1.704642         0.358269         1.240653
 H        -0.170449        -1.480739        -0.929422
 H        -0.316598        -1.196246         0.723132
 H        -0.919199        -0.149873        -0.470679
 H         1.568105         1.044799        -1.974348
 H         1.522262         2.361092        -0.661964
 H         4.131779         1.392808        -2.200530
 H         5.349770         0.297678        -1.283460
 H         3.178625        -1.520178         0.035557
 H         1.442751        -0.409314         2.017679
 H         1.191311         1.348211         1.495879
