19
Iteration:  4454charge 0 multiplicity 1
 C        -0.035421        -0.813697        -0.273059
 C         1.379238        -0.108448        -0.163398
 C         1.670988         1.165813        -0.947057
 C         3.131851         0.815736        -0.327826
 C         4.228288         0.486540        -1.290605
 O         3.334314        -0.521681        -1.803199
 C         2.774621        -0.693199        -0.446118
 O         3.123720         1.166929         0.976358
 C         1.839866         0.510720         1.279364
 H        -0.881937        -0.083847        -0.291688
 H        -0.190796        -1.157169        -1.316712
 H        -0.316890        -1.573004         0.425332
 H         1.887751         1.172908        -1.946597
 H         1.235052         2.074654        -0.676749
 H         4.663506         0.988107        -2.119182
 H         5.010792         0.092753        -0.595268
 H         3.034979        -1.674165        -0.083849
 H         2.037441        -0.344419         1.989855
 H         1.074349         1.245724         1.699578
