19
Iteration:  2947
 C         0.091844        -0.803112        -0.223993
 C         1.391042        -0.033632        -0.183917
 C         1.759577         1.287860        -0.959704
 C         3.172814         0.829849        -0.340703
 C         4.277242         0.506527        -1.427022
 O         3.323582        -0.632312        -1.847672
 C         2.658421        -0.659037        -0.527766
 O         3.048872         1.129046         1.157063
 C         1.742079         0.489544         1.298428
 H        -0.905148        -0.413207        -0.173961
 H         0.101164        -1.449080        -1.108506
 H         0.124172        -1.727817         0.468756
 H         1.696137         1.157895        -2.091056
 H         1.280419         2.113004        -0.380711
 H         4.499067         1.125082        -2.212827
 H         5.204103         0.019067        -1.079676
 H         2.968398        -1.576012         0.013017
 H         1.840712        -0.306947         2.167655
 H         0.869310         1.123936         1.654869
