19
Iteration:  3647
 C        -0.133040        -0.692710        -0.247675
 C         1.347741        -0.113880        -0.030474
 C         1.693580         1.132818        -0.945213
 C         3.100986         0.742960        -0.348793
 C         4.280901         0.492086        -1.254585
 O         3.478807        -0.592692        -1.925615
 C         2.787836        -0.733187        -0.630902
 O         3.033027         1.224882         0.994404
 C         1.804386         0.495044         1.396453
 H        -0.958248         0.006016         0.160959
 H        -0.208064        -0.857411        -1.355922
 H        -0.275271        -1.704424         0.156973
 H         1.620621         0.923265        -2.076796
 H         1.301006         2.141091        -0.788247
 H         4.684776         1.327737        -1.864292
 H         5.144153         0.067688        -0.793853
 H         3.426342        -1.307847         0.042786
 H         2.167438        -0.260488         2.128040
 H         1.072991         1.093813         1.850666
