19
Iteration:    60
 C        -0.079071        -0.685993        -0.179367
 C         1.391571        -0.145000        -0.090176
 C         1.692096         1.368316        -0.391308
 C         3.198489         0.734413        -0.260980
 C         4.105460         0.948933        -1.422997
 O         3.055393         0.150541        -2.207929
 C         2.708634        -0.551440        -0.872907
 O         3.363266         0.428237         1.107002
 C         2.020120        -0.267626         1.317737
 H        -0.272856        -1.721127         0.303818
 H        -0.736140         0.138890         0.174764
 H        -0.326774        -0.775042        -1.255927
 H         1.356876         1.670017        -1.427596
 H         1.386051         2.015194         0.493733
 H         4.215031         2.017411        -1.847549
 H         5.008660         0.336624        -1.217828
 H         3.325732        -1.440650        -0.760623
 H         2.177944        -1.241919         1.727979
 H         1.474325         0.342802         2.042736
