19
Iteration:  1434
 C        -0.002968        -0.704134        -0.246380
 C         1.373054        -0.084962        -0.108017
 C         1.805067         1.217817        -0.889147
 C         3.139135         0.763552        -0.364325
 C         4.190674         0.636434        -1.380865
 O         3.366672        -0.640991        -1.862261
 C         2.758294        -0.728837        -0.527887
 O         3.069872         1.081105         1.083310
 C         1.744136         0.437015         1.275360
 H        -0.266175        -0.428451        -1.324911
 H         0.070901        -1.793697        -0.195874
 H        -0.724056        -0.292894         0.547085
 H         1.591515         1.223306        -1.955752
 H         1.522934         2.189746        -0.505721
 H         4.190850         1.393465        -2.139110
 H         5.238781         0.404492        -1.143274
 H         3.183854        -1.469863         0.215067
 H         1.830783        -0.429819         1.936160
 H         1.041964         1.134951         1.755533
