19
Iteration:  1500charge 0 multiplicity 1
 C         0.033130        -0.691711        -0.230862
 C         1.358146        -0.094535        -0.160501
 C         1.678327         1.186307        -0.925320
 C         3.106787         0.794910        -0.385517
 C         4.302752         0.464442        -1.296494
 O         3.353886        -0.500105        -1.872054
 C         2.672474        -0.664980        -0.516311
 O         3.062324         1.174941         1.051363
 C         1.842772         0.335096         1.278460
 H        -0.278784        -0.880111        -1.322059
 H        -0.036821        -1.708495         0.191551
 H        -0.660162        -0.040468         0.463697
 H         1.579731         1.187420        -1.998912
 H         1.430491         2.022297        -0.337478
 H         4.592991         1.109699        -2.131278
 H         5.264142         0.063099        -0.822163
 H         3.232196        -1.484848         0.032005
 H         1.980404        -0.510440         1.932232
 H         1.054871         0.918125         1.787992
