19
Iteration:  4276
 C        -0.067519        -0.751297        -0.201660
 C         1.272838        -0.143156        -0.154548
 C         1.752646         1.164413        -0.915015
 C         3.142859         0.718763        -0.332838
 C         4.287953         0.599326        -1.343182
 O         3.477331        -0.601045        -1.896098
 C         2.751337        -0.703335        -0.518356
 O         3.068120         1.097801         1.044082
 C         1.718787         0.575384         1.306915
 H        -0.774659         0.079180         0.065005
 H        -0.327433        -1.072316        -1.232203
 H        -0.324517        -1.646291         0.436552
 H         1.643838         0.870872        -1.994868
 H         1.419666         2.138220        -0.558397
 H         4.380387         1.308772        -2.135193
 H         5.321341         0.458321        -0.781338
 H         3.231753        -1.649289        -0.166564
 H         1.904521        -0.125257         2.206700
 H         1.247136         1.584935         1.525302
