19
Iteration:  1851charge 0 multiplicity 1
 C         0.048949        -0.776820        -0.307061
 C         1.339275         0.053867        -0.068580
 C         1.716365         1.312920        -0.920468
 C         3.033280         0.823600        -0.435258
 C         4.223548         0.392114        -1.335111
 O         3.446179        -0.742348        -1.808933
 C         2.736637        -0.584473        -0.480226
 O         3.033768         1.154784         0.999472
 C         1.821196         0.389343         1.324515
 H        -0.690533        -0.772387         0.505548
 H        -0.374312        -0.212277        -1.204968
 H         0.256822        -1.866795        -0.570564
 H         1.477984         1.281155        -1.998271
 H         1.467849         2.305858        -0.448168
 H         4.602997         1.178325        -2.233373
 H         5.099276         0.274415        -0.697623
 H         3.175114        -1.390652         0.151182
 H         1.857390        -0.484939         2.072110
 H         1.170110         1.180062         1.870391
