19
Iteration:  1552
 C         0.012599        -0.734469        -0.238261
 C         1.397534         0.005560        -0.123556
 C         1.703634         1.285067        -0.877599
 C         3.156429         0.813192        -0.311426
 C         4.207456         0.602544        -1.415095
 O         3.417163        -0.633432        -1.859748
 C         2.724055        -0.671942        -0.526247
 O         3.082290         0.952075         1.071097
 C         1.747528         0.434249         1.293049
 H         0.186750        -1.590763        -0.933505
 H        -0.292822        -1.114908         0.764746
 H        -0.686385        -0.044597        -0.705346
 H         1.542606         1.102595        -1.957778
 H         1.224210         2.221869        -0.542580
 H         4.218754         1.492803        -2.254298
 H         5.185477         0.212627        -1.349288
 H         3.145246        -1.439908         0.065137
 H         1.731320        -0.478414         1.970898
 H         1.120628         1.146847         1.783223
