19
Iteration:  1523charge 0 multiplicity 1
 C        -0.113234        -0.766326        -0.277756
 C         1.361215        -0.073063        -0.174237
 C         1.798475         1.230698        -0.876298
 C         3.161564         0.816945        -0.276645
 C         4.228126         0.511834        -1.324490
 O         3.346290        -0.538857        -1.895565
 C         2.709393        -0.681248        -0.603098
 O         3.084207         1.197870         1.050226
 C         1.848723         0.354225         1.316432
 H        -0.169398        -1.541264        -1.108061
 H        -0.237191        -1.492005         0.569217
 H        -1.047716        -0.074827        -0.106449
 H         1.780306         0.885787        -1.890819
 H         1.351060         2.168763        -0.530409
 H         4.545283         1.284158        -1.968248
 H         5.206969        -0.060677        -1.028422
 H         3.149144        -1.542232         0.033259
 H         2.171342        -0.435241         1.986836
 H         1.183984         0.977871         1.986191
