19
Iteration:   511charge 0 multiplicity 1
 C        -0.085892        -0.695279        -0.285286
 C         1.358639        -0.128527        -0.182540
 C         1.738291         1.320035        -0.524116
 C         3.118201         0.813622        -0.262340
 C         4.077178         0.755378        -1.482343
 O         3.261046        -0.299354        -2.064926
 C         2.709728        -0.607729        -0.747943
 O         3.241545         0.752894         1.154175
 C         2.020494         0.085071         1.381049
 H         0.037877        -1.742118        -0.299428
 H        -0.832743        -0.373168         0.421786
 H        -0.460231        -0.372016        -1.322113
 H         1.486403         1.521461        -1.628260
 H         1.343724         2.263000         0.053868
 H         4.143294         1.661464        -2.126377
 H         5.090164         0.403009        -1.250464
 H         3.177767        -1.437085        -0.188807
 H         2.240368        -0.908679         1.998254
 H         1.249411         0.634497         1.981494
