19
Iteration:   811
 C         0.022433        -0.705862        -0.301397
 C         1.379261        -0.088875        -0.118229
 C         1.717380         1.276662        -0.728357
 C         3.115180         0.751371        -0.277621
 C         4.246218         0.538031        -1.432048
 O         3.276985        -0.356828        -1.963784
 C         2.670094        -0.605445        -0.635412
 O         3.079644         1.051586         1.079253
 C         1.927037         0.159770         1.375329
 H        -0.085718        -1.366095        -1.154553
 H        -0.333040        -1.303140         0.587388
 H        -0.702122         0.003919        -0.432473
 H         1.709189         1.398110        -1.812441
 H         1.429257         2.126635        -0.109451
 H         4.410304         1.206255        -2.224627
 H         5.224716         0.015507        -1.062071
 H         2.974797        -1.577874        -0.325529
 H         2.243147        -0.758631         1.880469
 H         1.242695         0.661564         2.046462
