19
Iteration:  3696charge 0 multiplicity 1
 C        -0.007042        -0.785720        -0.274872
 C         1.372351         0.027958        -0.225353
 C         1.798107         1.262397        -0.926486
 C         3.194775         0.863132        -0.346000
 C         4.123059         0.573697        -1.475072
 O         3.412808        -0.769209        -1.815996
 C         2.761487        -0.584058        -0.396725
 O         3.039098         1.076194         1.139674
 C         1.748558         0.377824         1.262646
 H        -0.817145        -0.134732        -0.244392
 H        -0.078713        -1.604086        -0.962938
 H        -0.022770        -1.355223         0.665331
 H         1.891062         1.288929        -1.996171
 H         1.410891         2.290732        -0.681845
 H         4.129779         1.253011        -2.351030
 H         5.225686         0.484911        -1.133519
 H         3.069167        -1.389893         0.273162
 H         1.780855        -0.382812         2.070516
 H         1.040493         1.230119         1.596443
