19
Iteration:  2341
 C        -0.035734        -0.826724        -0.335290
 C         1.337673        -0.068869        -0.121546
 C         1.809615         1.291451        -0.905137
 C         3.218404         0.877368        -0.347682
 C         4.182477         0.512978        -1.438971
 O         3.396401        -0.700759        -1.791214
 C         2.684125        -0.679876        -0.481257
 O         3.067711         1.146884         1.067272
 C         1.808754         0.471431         1.348251
 H        -0.757351        -0.296556         0.315269
 H        -0.158831        -0.784302        -1.399429
 H        -0.073938        -1.826835        -0.012152
 H         1.677795         1.227581        -1.975496
 H         1.269191         2.220441        -0.718730
 H         4.147147         1.158433        -2.250249
 H         5.227350         0.268695        -1.180728
 H         3.025587        -1.486218         0.131291
 H         1.925991        -0.268307         2.190920
 H         0.985553         1.135832         1.696394
