19
Iteration:  1536
 C        -0.021920        -0.766014        -0.239401
 C         1.252538        -0.039415        -0.093608
 C         1.801970         1.198749        -0.922360
 C         3.168277         0.753016        -0.374852
 C         4.252656         0.553762        -1.410385
 O         3.389862        -0.526574        -1.879570
 C         2.675823        -0.636739        -0.506457
 O         3.081093         1.105279         1.068906
 C         1.814759         0.345819         1.352863
 H         0.004221        -1.408594        -1.101251
 H        -0.269644        -1.278365         0.742768
 H        -0.835182        -0.069654        -0.539449
 H         1.692383         1.280371        -2.025170
 H         1.565132         2.311255        -0.565277
 H         4.333554         1.236295        -2.178032
 H         5.239667         0.279368        -0.887099
 H         3.131208        -1.570689         0.012595
 H         2.019105        -0.586852         1.926203
 H         1.008836         1.059972         1.746512
