19
Iteration:  4358charge 0 multiplicity 1
 C         0.036011        -0.717852        -0.312768
 C         1.301024        -0.140208        -0.015783
 C         1.757910         1.102986        -0.942899
 C         3.148102         0.789530        -0.299654
 C         4.269720         0.522900        -1.407524
 O         3.416686        -0.606580        -1.927058
 C         2.730380        -0.647638        -0.448904
 O         3.027048         1.126943         1.042760
 C         1.736003         0.531803         1.369331
 H        -0.755341        -0.102135         0.110694
 H        -0.138463        -0.726979        -1.388598
 H         0.008966        -1.723024         0.157350
 H         1.625228         0.862429        -2.031175
 H         1.290967         2.071417        -0.844838
 H         4.448076         1.398078        -2.177871
 H         5.214918         0.087941        -1.069941
 H         3.225844        -1.480884         0.005011
 H         1.899506         0.048168         2.320364
 H         1.084032         1.358792         1.599058
