19
Iteration:    58charge 0 multiplicity 1
 C        -0.075796        -0.697410        -0.194776
 C         1.379194        -0.145434        -0.100961
 C         1.681099         1.380093        -0.383173
 C         3.193242         0.737696        -0.256997
 C         4.111575         0.936937        -1.439186
 O         3.071622         0.142222        -2.226577
 C         2.689843        -0.530897        -0.855703
 O         3.379567         0.426383         1.128620
 C         2.021729        -0.273348         1.325282
 H        -0.332983        -1.680533         0.376958
 H        -0.730116         0.144316         0.128928
 H        -0.328577        -0.809049        -1.188775
 H         1.333056         1.692082        -1.403909
 H         1.339893         2.011483         0.493800
 H         4.232833         1.992138        -1.873885
 H         5.014657         0.388682        -1.254855
 H         3.303202        -1.365804        -0.764582
 H         2.188189        -1.262777         1.658174
 H         1.506237         0.321237         2.080260
