19
Iteration:  3406
 C         0.053355        -0.739523        -0.366122
 C         1.345849        -0.004358        -0.107981
 C         1.820163         1.206984        -0.966396
 C         3.138531         0.814881        -0.397010
 C         4.164322         0.436086        -1.448695
 O         3.340280        -0.705648        -1.784617
 C         2.785829        -0.633847        -0.429479
 O         3.062665         1.211373         1.085175
 C         1.717756         0.417979         1.368639
 H        -0.663127        -0.184459         0.200553
 H        -0.259372        -0.645903        -1.380224
 H         0.206354        -1.718392         0.089453
 H         1.625489         0.984387        -1.996752
 H         1.420096         2.257737        -0.653485
 H         4.360222         1.077549        -2.341481
 H         5.130879         0.132235        -0.990923
 H         3.205132        -1.298781         0.296699
 H         1.996002        -0.357835         2.163654
 H         0.973584         1.104176         1.800144
