19
Iteration:   339charge 0 multiplicity 1
 C        -0.001242        -0.780796        -0.261064
 C         1.318767        -0.031385        -0.093587
 C         1.688811         1.454568        -0.502801
 C         3.186591         0.836955        -0.317767
 C         4.142295         0.783672        -1.520109
 O         3.174021        -0.202769        -2.089129
 C         2.638059        -0.481825        -0.761314
 O         3.306935         0.597514         1.182621
 C         1.944219        -0.107705         1.346040
 H        -0.145642        -1.011656        -1.341379
 H        -0.064386        -1.766618         0.255430
 H        -0.795244        -0.072162         0.116862
 H         1.651233         1.704186        -1.566960
 H         1.374583         2.236708         0.160226
 H         4.258833         1.648996        -2.188277
 H         5.179790         0.232731        -1.323024
 H         3.112694        -1.380456        -0.301301
 H         2.070562        -1.069829         1.790582
 H         1.405109         0.501772         2.054850
