19
Iteration:  4513
 C        -0.026903        -0.786424        -0.263756
 C         1.362561        -0.058760        -0.225705
 C         1.741468         1.264222        -0.929753
 C         3.187180         0.799110        -0.305336
 C         4.160916         0.502635        -1.406747
 O         3.395234        -0.722251        -1.739266
 C         2.717948        -0.569145        -0.447376
 O         3.114106         1.160481         1.086137
 C         1.762936         0.439919         1.209108
 H        -0.570184        -0.213532         0.452669
 H        -0.348796        -0.811534        -1.297613
 H         0.081891        -1.888165        -0.034917
 H         1.968765         1.227114        -2.047571
 H         1.396020         2.225203        -0.485293
 H         4.003075         1.236244        -2.326969
 H         5.223849         0.359872        -1.162138
 H         3.148901        -1.318104         0.185061
 H         1.946123        -0.460918         1.840065
 H         0.883092         0.953485         1.597571
