19
Iteration:  3874charge 0 multiplicity 1
 C         0.023388        -0.866509        -0.313493
 C         1.349662        -0.059261        -0.197665
 C         1.759468         1.328673        -0.869219
 C         3.151364         0.848738        -0.359599
 C         4.225328         0.464100        -1.319705
 O         3.303730        -0.627441        -1.767320
 C         2.680700        -0.651679        -0.452850
 O         3.042544         1.222206         1.036064
 C         1.866043         0.373218         1.203978
 H        -0.724980        -0.089961        -0.334812
 H        -0.050557        -1.508225        -1.138984
 H        -0.062775        -1.323228         0.623712
 H         1.820662         1.066534        -1.948977
 H         1.646536         2.397884        -0.555098
 H         4.421763         1.130200        -2.287651
 H         5.176080         0.096092        -0.852203
 H         3.074212        -1.555176         0.123670
 H         2.095613        -0.562875         1.780596
 H         1.138999         1.012062         1.823734
