19
Iteration:  4306charge 0 multiplicity 1
 C         0.074612        -0.820129        -0.233174
 C         1.265874         0.058045        -0.206194
 C         1.725154         1.297791        -0.961197
 C         3.122867         0.846936        -0.377181
 C         4.252958         0.486291        -1.341895
 O         3.378435        -0.713408        -1.764338
 C         2.725959        -0.571517        -0.526495
 O         3.090591         1.114833         1.080686
 C         1.760061         0.399220         1.261533
 H        -0.776412        -0.429833         0.300017
 H        -0.169801        -1.048596        -1.250753
 H         0.305429        -1.848285         0.189538
 H         1.572884         1.165979        -2.130107
 H         1.381315         2.350886        -0.757083
 H         4.502428         1.092417        -2.233494
 H         5.084910         0.262740        -0.730610
 H         3.108892        -1.435188         0.185084
 H         1.887546        -0.504241         1.869493
 H         1.220711         1.035857         1.942474
