19
Iteration:  3191
 C        -0.120780        -0.704147        -0.194732
 C         1.268302        -0.026495        -0.114699
 C         1.683254         1.186231        -0.986809
 C         3.145992         0.819554        -0.370815
 C         4.264182         0.524994        -1.258479
 O         3.515427        -0.652016        -1.801477
 C         2.736365        -0.644057        -0.548419
 O         3.049469         1.146412         0.943503
 C         1.886385         0.399807         1.257505
 H        -1.030776        -0.148444        -0.059418
 H        -0.364263        -1.275292        -1.127901
 H        -0.055133        -1.270249         0.741536
 H         1.377797         0.978615        -1.971548
 H         1.309855         2.171610        -0.581018
 H         4.527330         1.121553        -2.152118
 H         5.142285         0.089831        -0.595384
 H         3.175196        -1.424463         0.145339
 H         2.028771        -0.513333         1.920878
 H         1.245126         1.113336         1.827532
