19
Iteration:  2591charge 0 multiplicity 1
 C        -0.061948        -0.694997        -0.260398
 C         1.380330        -0.135018        -0.113250
 C         1.829663         1.148717        -0.923341
 C         3.139894         0.788160        -0.342009
 C         4.203342         0.563516        -1.423203
 O         3.397009        -0.609626        -1.841463
 C         2.778956        -0.666345        -0.530453
 O         3.087681         1.100467         1.101303
 C         1.708840         0.485426         1.304786
 H        -0.782838         0.158633        -0.498032
 H        -0.116732        -1.466642        -1.007929
 H        -0.195716        -1.259763         0.652480
 H         1.794035         0.801345        -1.923353
 H         1.425619         2.099548        -0.650465
 H         4.163128         1.348524        -2.283652
 H         5.130414         0.341928        -0.980522
 H         3.214067        -1.478474         0.073096
 H         1.632288        -0.194506         2.228870
 H         0.990237         1.340561         1.518374
