19
Iteration:   734
 C        -0.120960        -0.771507        -0.189926
 C         1.332410        -0.056596        -0.116604
 C         1.777477         1.404900        -0.694496
 C         3.111491         0.797558        -0.369230
 C         4.184700         0.681971        -1.395528
 O         3.412469        -0.471787        -2.070753
 C         2.710724        -0.579194        -0.719432
 O         3.110697         0.887449         1.118100
 C         1.879580         0.174662         1.392855
 H        -0.269909        -1.480167         0.645715
 H        -0.979742        -0.036749        -0.146310
 H        -0.219299        -1.372376        -0.995502
 H         1.681009         1.414437        -1.788864
 H         1.566193         2.369618        -0.181664
 H         4.369910         1.486796        -2.040051
 H         5.177151         0.169430        -1.045730
 H         3.252211        -1.370717        -0.205214
 H         2.101677        -0.891474         1.778130
 H         1.199705         0.661328         2.151626
