19
Iteration:  4654charge 0 multiplicity 1
 C         0.108260        -0.680755        -0.418378
 C         1.346844        -0.093358        -0.078963
 C         1.749065         1.130211        -0.895873
 C         3.122036         0.843073        -0.370269
 C         4.238196         0.446720        -1.341642
 O         3.261941        -0.632163        -1.768030
 C         2.698972        -0.680113        -0.492065
 O         3.087250         1.259357         0.972685
 C         1.844761         0.444367         1.369146
 H        -0.727515        -0.141661         0.043065
 H        -0.096908        -0.880396        -1.483673
 H        -0.093720        -1.737159         0.044217
 H         1.578551         0.957072        -1.944527
 H         1.312434         1.993334        -0.528439
 H         4.660905         1.162502        -2.130146
 H         4.952758        -0.048859        -0.789313
 H         3.244576        -1.443822         0.040139
 H         2.082201        -0.426428         2.183068
 H         0.954203         1.037331         1.857578
