19
Iteration:  3348
 C        -0.080851        -0.705513        -0.112712
 C         1.264544        -0.036980        -0.105210
 C         1.801167         1.189161        -0.973217
 C         3.179780         0.765487        -0.338493
 C         4.291557         0.536422        -1.304502
 O         3.462391        -0.617666        -1.884668
 C         2.710211        -0.717485        -0.511871
 O         3.017086         1.115482         1.013936
 C         1.804262         0.472779         1.213042
 H        -0.816501         0.102008        -0.234874
 H        -0.058981        -1.430461        -0.919728
 H        -0.505461        -1.261179         0.682386
 H         1.913861         0.970588        -2.134808
 H         1.150226         2.091861        -0.850829
 H         4.428420         1.395806        -2.181035
 H         5.203734         0.179254        -0.781122
 H         3.125579        -1.546550         0.146707
 H         1.982830        -0.312380         2.013084
 H         1.013719         1.219761         1.615816
