19
Iteration:  1828charge 0 multiplicity 1
 C        -0.068712        -0.723216        -0.293212
 C         1.341697        -0.057045        -0.199730
 C         1.738857         1.187037        -0.915454
 C         3.139368         0.803774        -0.275605
 C         4.280159         0.477264        -1.396009
 O         3.381028        -0.644422        -1.751018
 C         2.730065        -0.643870        -0.509208
 O         3.082209         1.208483         1.036594
 C         1.817653         0.406513         1.268926
 H        -0.707308        -0.421652         0.572445
 H        -0.549860        -0.507062        -1.252045
 H         0.044037        -1.812087        -0.162924
 H         1.681104         0.954691        -1.997820
 H         1.200026         2.179521        -0.667576
 H         4.561649         1.278052        -2.287264
 H         5.226998         0.050600        -1.109552
 H         3.022189        -1.451864         0.192967
 H         1.999357        -0.408576         2.039470
 H         1.116714         1.132026         1.778968
