19
Iteration:  1351
 C        -0.085606        -0.737617        -0.164979
 C         1.273033        -0.042670        -0.119866
 C         1.713776         1.220138        -0.891129
 C         3.228126         0.783972        -0.293188
 C         4.288315         0.653964        -1.501635
 O         3.429640        -0.580469        -1.868126
 C         2.769403        -0.604000        -0.527074
 O         3.127405         0.971712         1.130373
 C         1.730420         0.347027         1.235973
 H        -0.099058        -1.498766        -0.940814
 H        -0.330088        -1.265576         0.818314
 H        -0.930226        -0.147912        -0.485510
 H         1.546325         1.117912        -1.988377
 H         1.541592         2.413898        -0.610140
 H         4.140758         1.454285        -2.262833
 H         5.308983         0.228924        -1.209316
 H         3.040280        -1.518552         0.018401
 H         1.477858        -0.399410         2.025574
 H         1.143711         1.322068         1.415860
