19
Iteration:   920charge 0 multiplicity 1
 C        -0.009444        -0.663672        -0.312433
 C         1.350618        -0.051598        -0.065516
 C         1.706536         1.260607        -0.819530
 C         3.138986         0.826061        -0.305728
 C         4.178714         0.596799        -1.381065
 O         3.360321        -0.522761        -1.965144
 C         2.721118        -0.632351        -0.585160
 O         3.119535         1.044337         1.073815
 C         1.876712         0.210830         1.396078
 H        -0.851495        -0.198420         0.291948
 H        -0.219350        -0.598530        -1.480319
 H        -0.004565        -1.758297        -0.039274
 H         1.472648         1.082478        -1.891324
 H         1.198984         2.203675        -0.515581
 H         4.467695         1.310517        -2.080416
 H         5.108662         0.008539        -1.078070
 H         3.106286        -1.472858        -0.061411
 H         2.088897        -0.764554         1.826589
 H         1.152186         0.708953         2.000090
