19
Iteration:  1877charge 0 multiplicity 1
 C        -0.063631        -0.857437        -0.309538
 C         1.310974        -0.011345        -0.173355
 C         1.745126         1.232051        -0.934646
 C         3.158573         0.827229        -0.361081
 C         4.295370         0.452281        -1.369656
 O         3.381450        -0.654239        -1.783565
 C         2.670730        -0.597933        -0.444812
 O         3.142112         1.160005         1.072859
 C         1.786124         0.500269         1.254551
 H        -0.594046        -0.854639         0.679824
 H        -0.694065        -0.395451        -1.131995
 H         0.110686        -1.953581        -0.530901
 H         1.675924         1.234793        -1.997518
 H         1.353345         2.069259        -0.473190
 H         4.444569         1.141440        -2.119246
 H         5.334906         0.276994        -0.905256
 H         2.906614        -1.542469         0.074534
 H         1.943649        -0.347232         1.930175
 H         1.059260         1.161936         1.738645
