19
Iteration:  2512
 C        -0.040024        -0.747989        -0.290061
 C         1.342258        -0.088582        -0.107281
 C         1.748435         1.136613        -0.943562
 C         3.160963         0.852313        -0.308459
 C         4.328174         0.416224        -1.362994
 O         3.352893        -0.565151        -1.806276
 C         2.734191        -0.646800        -0.467574
 O         3.031236         1.227799         0.994223
 C         1.785323         0.418599         1.315130
 H        -0.752394        -0.305559         0.415391
 H        -0.470434        -0.489453        -1.288838
 H        -0.101810        -1.860661        -0.034755
 H         1.747758         0.992408        -1.980539
 H         1.317142         2.044460        -0.738448
 H         4.624054         1.178047        -2.165883
 H         5.265447         0.031484        -1.069085
 H         2.971178        -1.604045         0.057318
 H         2.234874        -0.405207         1.940717
 H         1.058735         1.158981         1.667661
