19
Iteration:  3168
 C        -0.072781        -0.701026        -0.144672
 C         1.342860        -0.139112        -0.150014
 C         1.673303         1.281336        -0.963320
 C         3.108388         0.841646        -0.394392
 C         4.238099         0.570387        -1.409740
 O         3.612571        -0.697824        -1.836297
 C         2.676668        -0.647193        -0.430484
 O         3.110786         1.052541         1.035779
 C         1.729479         0.450994         1.245358
 H        -0.783203         0.111091        -0.283077
 H        -0.399210        -1.312413        -1.003505
 H        -0.387625        -1.092409         0.861915
 H         1.534223         1.069077        -1.994954
 H         1.319920         2.252341        -0.602571
 H         4.303445         1.224648        -2.263750
 H         5.269834         0.338160        -0.845060
 H         3.164033        -1.435959         0.153058
 H         1.901842        -0.379194         1.983595
 H         0.915756         1.079783         1.597450
