19
Iteration:   677charge 0 multiplicity 1
 C        -0.101845        -0.721477        -0.227502
 C         1.353282        -0.108172        -0.055911
 C         1.807925         1.239211        -0.694208
 C         3.131172         0.798502        -0.335928
 C         4.186309         0.685722        -1.438035
 O         3.336711        -0.278828        -2.055886
 C         2.616329        -0.638090        -0.688140
 O         3.207525         0.859867         1.114146
 C         1.872291         0.172209         1.405088
 H        -0.867102        -0.350007         0.427215
 H        -0.324727        -0.613644        -1.277105
 H         0.106337        -1.830273        -0.135698
 H         1.638095         1.250413        -1.800819
 H         1.448130         2.227424        -0.205380
 H         4.247336         1.523556        -2.153253
 H         5.227319         0.292140        -1.073664
 H         3.027945        -1.584455        -0.352305
 H         2.005044        -0.772498         2.028107
 H         1.154760         0.850239         1.853956
