19
Iteration:  2618charge 0 multiplicity 1
 C        -0.017215        -0.726438        -0.359882
 C         1.386720        -0.105078        -0.093037
 C         1.737817         1.215955        -0.938134
 C         3.218176         0.720181        -0.267804
 C         4.233611         0.496530        -1.418154
 O         3.302458        -0.592314        -1.831911
 C         2.764260        -0.667561        -0.423711
 O         3.043830         1.234235         1.015254
 C         1.807126         0.435406         1.326131
 H        -0.707489         0.099930        -0.454173
 H         0.231301        -1.281118        -1.303637
 H        -0.275288        -1.543223         0.350261
 H         1.649479         0.962241        -2.047703
 H         1.223745         2.123472        -0.414956
 H         4.147607         1.271208        -2.112458
 H         5.236277         0.078880        -0.993301
 H         3.070674        -1.600081         0.065494
 H         1.909713        -0.386436         1.954068
 H         1.161090         1.003591         1.949699
