19
Iteration:  2206charge 0 multiplicity 1
 C        -0.021644        -0.672757        -0.288399
 C         1.348464        -0.146168        -0.171446
 C         1.753675         1.160953        -0.892468
 C         3.127448         0.791820        -0.365096
 C         4.172864         0.506769        -1.319003
 O         3.369040        -0.583694        -1.893566
 C         2.776661        -0.692984        -0.443086
 O         3.034919         1.218597         1.000029
 C         1.856251         0.395750         1.378177
 H        -0.793495         0.075334        -0.453479
 H        -0.069135        -1.376785        -1.088414
 H        -0.402107        -1.211278         0.529582
 H         1.743680         1.003939        -2.023381
 H         1.381220         2.250623        -0.627186
 H         4.673897         1.155312        -2.045635
 H         4.985535        -0.006849        -0.954895
 H         3.282578        -1.516288         0.019106
 H         2.193212        -0.304694         2.154084
 H         1.127790         1.075735         1.830750
