19
Iteration:   756
 C        -0.038924        -0.707309        -0.243167
 C         1.324877        -0.021450        -0.130244
 C         1.658870         1.295733        -0.735537
 C         3.165267         0.737379        -0.280791
 C         4.133568         0.754131        -1.482645
 O         3.409748        -0.414721        -1.915873
 C         2.672833        -0.621233        -0.615241
 O         3.252137         0.778034         1.111715
 C         1.832885         0.225532         1.279872
 H         0.169399        -1.719472         0.138859
 H        -0.845782        -0.231965         0.395522
 H        -0.285392        -0.810767        -1.221227
 H         1.567829         1.325261        -1.832446
 H         1.340314         2.232014        -0.229024
 H         4.136484         1.556900        -2.160708
 H         5.232683         0.435329        -1.260104
 H         2.845802        -1.631849        -0.280700
 H         1.766940        -0.613729         2.033573
 H         1.250680         1.108401         1.606299
