19
Iteration:  2753
 C        -0.016264        -0.746525        -0.334356
 C         1.264290        -0.056064        -0.125697
 C         1.681994         1.255129        -0.841301
 C         3.150464         0.920526        -0.383175
 C         4.287765         0.517299        -1.381346
 O         3.457459        -0.729816        -1.780537
 C         2.665754        -0.641955        -0.496619
 O         3.135673         1.186324         1.040425
 C         1.802105         0.367932         1.267591
 H        -0.903521        -0.112605        -0.346359
 H        -0.157707        -1.299655        -1.284501
 H        -0.107628        -1.607458         0.391406
 H         1.426097         1.226811        -1.907932
 H         1.227263         2.153661        -0.394203
 H         4.337521         1.178674        -2.318985
 H         5.293409         0.216754        -0.925239
 H         2.905689        -1.428242         0.250927
 H         2.069087        -0.537411         1.797278
 H         1.146577         0.933681         1.949505
