19
Iteration:  4774charge 0 multiplicity 1
 C         0.096870        -0.705289        -0.368278
 C         1.370143        -0.084136        -0.146275
 C         1.795263         1.194245        -0.891422
 C         3.168750         0.840431        -0.328832
 C         4.222910         0.476328        -1.326965
 O         3.262086        -0.660073        -1.775105
 C         2.703143        -0.715032        -0.483279
 O         2.989402         1.285753         0.978501
 C         1.895383         0.363328         1.305228
 H        -0.629744         0.059909        -0.233702
 H        -0.157828        -1.172702        -1.308696
 H        -0.232318        -1.318073         0.533991
 H         1.846751         1.052267        -1.955516
 H         1.163864         2.046818        -0.648736
 H         4.402717         1.302188        -2.160074
 H         5.106348         0.048462        -0.913820
 H         2.826520        -1.619791         0.191913
 H         2.265885        -0.282194         2.027878
 H         1.106332         0.858915         1.919046
