19
Iteration:  4456
 C        -0.038954        -0.816127        -0.280558
 C         1.383393        -0.091196        -0.169132
 C         1.667723         1.162488        -0.936743
 C         3.131181         0.807897        -0.319720
 C         4.231024         0.504542        -1.286914
 O         3.325873        -0.541549        -1.816803
 C         2.779819        -0.698230        -0.440185
 O         3.128709         1.161437         0.983698
 C         1.824869         0.524669         1.297979
 H        -0.843607        -0.090356        -0.255528
 H        -0.139135        -1.120444        -1.314897
 H        -0.286542        -1.632749         0.429094
 H         1.900547         1.123871        -2.010817
 H         1.260184         2.050744        -0.660904
 H         4.705066         1.041960        -2.199278
 H         5.004563         0.112588        -0.641128
 H         3.047311        -1.649465        -0.146781
 H         2.000338        -0.337092         1.990804
 H         1.083944         1.280680         1.595300
