19
Iteration:  1781charge 0 multiplicity 1
 C        -0.041936        -0.695391        -0.151366
 C         1.371340        -0.075050        -0.134803
 C         1.685649         1.187628        -0.977796
 C         3.187396         0.812116        -0.305398
 C         4.234510         0.487974        -1.331520
 O         3.468442        -0.602168        -1.851900
 C         2.752768        -0.679298        -0.608476
 O         3.084891         1.052307         1.095255
 C         1.717136         0.494771         1.239038
 H        -0.877896         0.039919        -0.332132
 H        -0.022872        -1.346727        -0.957632
 H        -0.182418        -1.191591         0.745974
 H         1.580029         1.144453        -2.110058
 H         1.206485         2.211204        -0.541860
 H         4.297705         1.223129        -2.245561
 H         5.299188         0.295214        -0.994659
 H         2.999703        -1.562221        -0.024222
 H         1.735437        -0.206620         2.095356
 H         0.990045         1.214626         1.546211
