19
Iteration:  4223charge 0 multiplicity 1
 C        -0.092793        -0.676382        -0.224128
 C         1.301962        -0.030444        -0.153191
 C         1.777771         1.283503        -0.908118
 C         3.125751         0.843537        -0.446053
 C         4.267164         0.491580        -1.447544
 O         3.500401        -0.727415        -1.829357
 C         2.771872        -0.634469        -0.514810
 O         2.969673         1.182917         1.112202
 C         1.810423         0.308277         1.351265
 H        -1.054678        -0.109490        -0.403004
 H         0.021173        -1.204443        -1.218755
 H        -0.177387        -1.372921         0.618383
 H         1.605463         1.034646        -1.976708
 H         1.233942         2.161264        -0.630379
 H         4.388171         1.320015        -2.148463
 H         5.329497         0.264234        -0.941894
 H         3.259340        -1.337603         0.114626
 H         2.018157        -0.596520         2.035163
 H         1.064509         0.947287         1.966633
