19
Iteration:  2478
 C         0.044928        -0.735350        -0.335887
 C         1.339439        -0.051774        -0.102845
 C         1.769127         1.220664        -0.874525
 C         3.150418         0.824580        -0.316781
 C         4.216824         0.552708        -1.494046
 O         3.390957        -0.697444        -1.761142
 C         2.757835        -0.684993        -0.424183
 O         3.085472         1.042072         1.019831
 C         1.697455         0.570078         1.270896
 H        -0.695171        -0.414937         0.385645
 H        -0.375667        -0.791481        -1.388749
 H         0.247120        -1.864333        -0.107491
 H         1.785737         1.124459        -1.979536
 H         1.493213         2.143901        -0.511950
 H         3.938967         1.315070        -2.210647
 H         5.257303         0.391205        -1.264168
 H         3.027282        -1.600538         0.167149
 H         1.683017        -0.126983         2.205661
 H         1.060195         1.375581         1.726108
