19
Iteration:   258charge 0 multiplicity 1
 C        -0.078226        -0.626872        -0.232325
 C         1.388590        -0.139718        -0.164067
 C         1.683822         1.357559        -0.498772
 C         3.196021         0.790492        -0.253768
 C         4.120974         0.775280        -1.437191
 O         3.148645        -0.100804        -2.126112
 C         2.650940        -0.553316        -0.830266
 O         3.210564         0.697385         1.186813
 C         2.114329        -0.205362         1.324459
 H        -0.270255        -1.468156         0.482791
 H        -0.617118         0.301612         0.041302
 H        -0.342623        -1.057660        -1.251421
 H         1.449458         1.858767        -1.472122
 H         1.284313         2.162716         0.315557
 H         4.209664         1.729253        -2.011520
 H         5.097288         0.247118        -1.365235
 H         3.072046        -1.544360        -0.542304
 H         2.605667        -1.180708         1.498516
 H         1.597537         0.053190         2.259466
