19
Iteration:   435charge 0 multiplicity 1
 C        -0.022571        -0.770513        -0.127976
 C         1.254218        -0.015070        -0.201037
 C         1.743153         1.413312        -0.536794
 C         3.156140         0.760715        -0.236302
 C         4.100424         0.838155        -1.528950
 O         3.314325        -0.251098        -2.061187
 C         2.706775        -0.558960        -0.761603
 O         3.250413         0.604723         1.124287
 C         1.893209         0.032592         1.280240
 H        -0.619000        -0.430170         0.693562
 H        -0.580234        -0.631006        -1.052363
 H         0.370154        -1.828727         0.015635
 H         1.650342         1.729116        -1.629187
 H         1.416325         2.207615         0.277623
 H         4.083457         1.653785        -2.180499
 H         5.102775         0.531929        -1.368570
 H         3.222157        -1.471160        -0.332898
 H         1.798370        -1.030224         1.736340
 H         1.299876         0.626499         2.001489
