19
Iteration:  1573charge 0 multiplicity 1
 C        -0.096561        -0.766942        -0.268424
 C         1.341422        -0.116938        -0.221030
 C         1.781742         1.227733        -0.863733
 C         3.147606         0.814874        -0.309350
 C         4.114379         0.601136        -1.488787
 O         3.418471        -0.612678        -1.851601
 C         2.734605        -0.593193        -0.478937
 O         3.184840         1.011680         1.157275
 C         1.784241         0.410409         1.271014
 H        -0.036545        -1.697814        -0.862381
 H        -0.526533        -1.020383         0.698385
 H        -0.682718        -0.048812        -0.806518
 H         1.807283         1.365867        -1.991819
 H         1.437939         2.160940        -0.312553
 H         4.359560         1.329003        -2.383969
 H         5.008394         0.408788        -0.990170
 H         3.056610        -1.414639         0.094918
 H         1.843879        -0.195123         2.234668
 H         1.149021         1.217041         1.571286
