19
Iteration:  4368
 C        -0.038207        -0.706595        -0.262607
 C         1.377868        -0.142842        -0.092767
 C         1.721528         1.075725        -0.991759
 C         3.132822         0.745516        -0.359905
 C         4.157613         0.550237        -1.378700
 O         3.445196        -0.551371        -1.839039
 C         2.783509        -0.688881        -0.495889
 O         3.099957         1.074684         1.083549
 C         1.759998         0.575942         1.340767
 H        -0.784241         0.044622         0.039662
 H        -0.124337        -0.842929        -1.363705
 H        -0.245668        -1.668238         0.229615
 H         1.691959         0.851551        -2.029478
 H         1.422456         2.049552        -0.705020
 H         4.246181         1.323738        -2.228760
 H         5.137849         0.390845        -0.868177
 H         3.181190        -1.384680         0.163301
 H         1.707758        -0.047791         2.239838
 H         1.061888         1.416585         1.334743
