19
Iteration:   849charge 0 multiplicity 1
 C        -0.022752        -0.773371        -0.188894
 C         1.242235        -0.027136        -0.174804
 C         1.698341         1.322645        -0.804558
 C         3.189371         0.827027        -0.320707
 C         4.214771         0.578853        -1.409192
 O         3.406326        -0.427505        -1.904919
 C         2.647965        -0.551418        -0.636247
 O         3.164353         0.885185         1.054471
 C         1.855484         0.192949         1.350874
 H        -0.543653        -0.433500        -1.109280
 H         0.184016        -1.809319        -0.201588
 H        -0.738877        -0.425234         0.662921
 H         1.725218         1.326526        -1.905655
 H         1.320143         2.306980        -0.445183
 H         4.508816         1.403637        -2.209067
 H         5.104531         0.240388        -0.951545
 H         2.964783        -1.529651        -0.111323
 H         1.985975        -0.780890         1.997558
 H         1.209648         0.964279         1.909311
