19
Iteration:   844charge 0 multiplicity 1
 C        -0.040954        -0.758234        -0.203761
 C         1.253507        -0.034515        -0.142542
 C         1.699270         1.333229        -0.812039
 C         3.148424         0.830056        -0.315731
 C         4.199047         0.586889        -1.358536
 O         3.374566        -0.443918        -1.927154
 C         2.670456        -0.537275        -0.643821
 O         3.208218         0.910970         1.060607
 C         1.852234         0.177505         1.341175
 H        -0.464218        -0.630994        -1.203635
 H         0.126228        -1.877188        -0.077691
 H        -0.677856        -0.439928         0.560334
 H         1.799709         1.349149        -1.900007
 H         1.375753         2.331430        -0.527969
 H         4.457410         1.205420        -2.168055
 H         5.163069         0.207396        -0.850894
 H         3.025022        -1.405532        -0.131075
 H         2.032209        -0.797860         1.731318
 H         1.208661         0.837607         1.884162
