19
Iteration:  1725
 C         0.041951        -0.709634        -0.329579
 C         1.387959        -0.049206        -0.130686
 C         1.721843         1.176177        -0.869072
 C         3.148585         0.788496        -0.299448
 C         4.240200         0.453415        -1.392068
 O         3.365215        -0.653116        -1.949092
 C         2.690314        -0.650607        -0.504720
 O         3.017957         1.245202         1.120612
 C         1.817185         0.406042         1.339289
 H        -0.632979        -0.096728        -0.966536
 H         0.146717        -1.755686        -0.664846
 H        -0.399390        -0.762416         0.626838
 H         1.844552         1.024629        -1.981202
 H         1.335669         2.240598        -0.599981
 H         4.449421         1.099527        -2.244305
 H         5.165424         0.154967        -0.767527
 H         2.882627        -1.497175         0.158980
 H         2.176650        -0.438308         1.934812
 H         1.075500         1.005670         1.824055
