19
Iteration:  2933charge 0 multiplicity 1
 C         0.103770        -0.861918        -0.306209
 C         1.295139        -0.057590        -0.126799
 C         1.768558         1.175587        -0.906530
 C         3.165681         0.744456        -0.328945
 C         4.183560         0.473367        -1.356500
 O         3.316185        -0.521310        -1.892494
 C         2.740854        -0.672467        -0.454480
 O         3.118506         1.119662         1.075946
 C         1.715646         0.556948         1.281839
 H        -0.701482        -0.160981         0.120993
 H        -0.056743        -1.087230        -1.373527
 H         0.085942        -1.602343         0.504327
 H         1.700393         1.100556        -1.933730
 H         1.474298         2.146248        -0.673082
 H         4.412812         1.310566        -2.109390
 H         5.152968         0.105118        -0.875969
 H         3.217933        -1.465445         0.107816
 H         1.679138        -0.252984         2.037807
 H         1.152822         1.453020         1.460778
