19
Iteration:  2045
 C        -0.072221        -0.813538        -0.250335
 C         1.284412        -0.025024        -0.128863
 C         1.738617         1.220540        -0.959429
 C         3.167381         0.782556        -0.304065
 C         4.178217         0.529953        -1.444803
 O         3.484297        -0.633334        -1.828431
 C         2.756509        -0.596766        -0.517220
 O         3.111778         1.086275         1.082325
 C         1.747847         0.469456         1.332773
 H        -0.866488         0.008495        -0.232546
 H         0.056535        -1.374065        -1.157637
 H        -0.271886        -1.475542         0.593022
 H         1.744694         1.178320        -2.062710
 H         1.335281         2.149562        -0.631825
 H         4.399624         1.164922        -2.221645
 H         5.228092         0.263164        -1.065285
 H         3.066430        -1.528996         0.028922
 H         1.807156        -0.302949         2.102448
 H         1.111835         1.283775         1.680720
