19
Iteration:  1967charge 0 multiplicity 1
 C         0.006786        -0.726000        -0.255213
 C         1.306573         0.014605        -0.088622
 C         1.731729         1.330966        -0.959620
 C         3.081501         0.847062        -0.427813
 C         4.200501         0.474359        -1.301729
 O         3.465122        -0.673262        -1.794508
 C         2.718059        -0.644858        -0.511195
 O         3.047519         1.126992         0.997032
 C         1.842309         0.315147         1.315905
 H        -0.944001        -0.046726        -0.017878
 H        -0.095653        -1.091810        -1.289631
 H         0.038250        -1.571012         0.423759
 H         1.565384         1.082922        -2.010714
 H         1.335237         2.365493        -0.745697
 H         4.341875         1.102362        -2.156193
 H         5.320427         0.203265        -0.890253
 H         3.131709        -1.405367         0.224049
 H         2.097262        -0.631149         1.816472
 H         1.112081         0.820603         1.974733
