19
Iteration:  4289
 C        -0.040503        -0.793075        -0.209302
 C         1.310373        -0.005597        -0.064694
 C         1.731912         1.211733        -0.935993
 C         3.149253         0.805675        -0.393446
 C         4.271379         0.497247        -1.388001
 O         3.548890        -0.604865        -1.874034
 C         2.661690        -0.636164        -0.485977
 O         3.058134         1.039759         1.016056
 C         1.736099         0.513586         1.328234
 H        -0.972519        -0.246000         0.138911
 H        -0.177458        -1.012323        -1.307490
 H         0.064402        -1.699911         0.367697
 H         1.705371         1.084596        -1.967797
 H         1.264997         2.181309        -0.748623
 H         4.427871         1.307659        -2.111822
 H         5.310191         0.089433        -1.015427
 H         3.006864        -1.337053         0.208504
 H         1.695969        -0.247560         2.180624
 H         0.880115         1.220449         1.601788
