19
Iteration:   220
 C        -0.097411        -0.785931        -0.214624
 C         1.271581        -0.043102        -0.095914
 C         1.698498         1.457752        -0.434939
 C         3.139848         0.765315        -0.278674
 C         4.119002         0.876803        -1.470781
 O         3.246005        -0.104178        -2.150114
 C         2.676769        -0.486970        -0.826355
 O         3.320659         0.467363         1.084324
 C         2.040216        -0.113746         1.373238
 H        -0.748571        -0.483883         0.655301
 H        -0.616988        -0.215433        -0.993389
 H        -0.163654        -1.885171        -0.313083
 H         1.425049         1.824299        -1.420737
 H         1.592980         2.163901         0.312629
 H         4.102126         1.854708        -1.908491
 H         5.109805         0.454133        -1.332525
 H         3.165902        -1.427639        -0.543527
 H         2.125020        -1.207337         1.614859
 H         1.517551         0.487141         2.177314
