19
Iteration:  3732
 C        -0.018394        -0.797532        -0.328542
 C         1.347824        -0.119260        -0.089084
 C         1.722031         1.150499        -0.936552
 C         3.211693         0.735051        -0.288909
 C         4.251076         0.547571        -1.310367
 O         3.303112        -0.562986        -1.906420
 C         2.747935        -0.710737        -0.442854
 O         3.114463         1.154176         1.002869
 C         1.797558         0.577758         1.303678
 H        -0.964260        -0.152067        -0.216376
 H        -0.094083        -1.210482        -1.322270
 H        -0.065925        -1.516332         0.490558
 H         1.564243         0.960173        -1.941792
 H         1.369364         2.047147        -0.518890
 H         4.477651         1.484448        -1.966534
 H         5.097633         0.142971        -0.810517
 H         3.175662        -1.633024         0.064433
 H         1.769949        -0.142367         2.140594
 H         1.028624         1.382224         1.476717
