19
Iteration:    38
 C        -0.099785        -0.711398        -0.261568
 C         1.303464        -0.041113        -0.085355
 C         1.668550         1.382250        -0.229230
 C         3.178737         0.875301        -0.193855
 C         4.078851         0.904612        -1.547134
 O         3.191187         0.006023        -2.214048
 C         2.568534        -0.406465        -0.978308
 O         3.354812         0.432769         1.208063
 C         2.160753        -0.342231         1.308399
 H        -0.150074        -1.403456         0.653567
 H        -0.951982        -0.010596        -0.469580
 H        -0.056036        -1.479746        -1.043521
 H         1.602615         1.712663        -1.314797
 H         1.425889         2.185093         0.546041
 H         4.107872         1.949327        -2.077799
 H         5.011049         0.344341        -1.347682
 H         2.808205        -1.444826        -0.792169
 H         2.421584        -1.357609         1.493517
 H         1.491809        -0.021408         2.116237
