19
Iteration:   455
 C        -0.055683        -0.828502        -0.227257
 C         1.358834        -0.096483        -0.164094
 C         1.836210         1.395359        -0.570747
 C         3.225375         0.806098        -0.226291
 C         4.160248         0.748061        -1.424583
 O         3.161033        -0.226149        -2.121489
 C         2.604048        -0.598299        -0.809217
 O         3.280385         0.856980         1.192387
 C         1.884708        -0.032788         1.323620
 H        -0.484637        -0.947644         0.724987
 H        -0.694946        -0.191025        -0.815385
 H         0.095395        -1.840453        -0.711839
 H         1.468755         1.523549        -1.616498
 H         1.606004         2.233085         0.204331
 H         4.168120         1.733239        -1.983467
 H         5.123359         0.301792        -1.311439
 H         2.773711        -1.637362        -0.479876
 H         2.228941        -1.074129         1.777666
 H         1.243632         0.512106         2.083812
