19
Iteration:  2949
 C         0.085789        -0.805222        -0.215213
 C         1.379713        -0.039402        -0.188644
 C         1.764449         1.309358        -0.958603
 C         3.189989         0.841965        -0.322324
 C         4.276895         0.505019        -1.428970
 O         3.327543        -0.652756        -1.836396
 C         2.671290        -0.638700        -0.545658
 O         3.028913         1.122727         1.146236
 C         1.750474         0.482727         1.304364
 H        -0.918781        -0.471142        -0.155851
 H         0.141869        -1.440970        -1.105615
 H         0.040304        -1.681985         0.513046
 H         1.678960         1.141625        -2.118493
 H         1.272836         2.179543        -0.371262
 H         4.522742         1.120172        -2.258720
 H         5.173089         0.033653        -1.114826
 H         2.962213        -1.590160        -0.020770
 H         1.908674        -0.330154         2.104823
 H         0.845538         1.080396         1.663381
