19
Iteration:  3814charge 0 multiplicity 1
 C        -0.040057        -0.731502        -0.212058
 C         1.288141        -0.081119        -0.230159
 C         1.691315         1.123423        -0.945949
 C         3.128694         0.756101        -0.347512
 C         4.217739         0.669465        -1.377114
 O         3.504026        -0.692012        -1.755161
 C         2.685118        -0.664654        -0.476486
 O         3.164717         1.062069         1.067482
 C         1.771285         0.537162         1.236782
 H        -0.740697        -0.109645         0.379844
 H        -0.583768        -0.864460        -1.212248
 H        -0.196170        -1.779353         0.204366
 H         1.818936         1.238821        -2.054635
 H         1.236829         2.139506        -0.662373
 H         4.208722         1.318885        -2.184547
 H         5.275943         0.551869        -1.018268
 H         3.147570        -1.384014         0.143751
 H         1.779706        -0.308408         1.909940
 H         1.208129         1.382223         1.560055
