19
Iteration:  4626charge 0 multiplicity 1
 C        -0.018272        -0.805670        -0.374535
 C         1.275994        -0.050101        -0.139955
 C         1.754916         1.243793        -0.898200
 C         3.189641         0.777012        -0.321760
 C         4.220602         0.562568        -1.457983
 O         3.389622        -0.733612        -1.780715
 C         2.701405        -0.612264        -0.457460
 O         3.136194         1.113482         1.052302
 C         1.794316         0.546211         1.373551
 H        -0.892933        -0.143775        -0.225414
 H        -0.092401        -1.391855        -1.297605
 H        -0.200409        -1.590180         0.320696
 H         1.660181         1.219282        -1.993563
 H         1.232085         2.218196        -0.445548
 H         4.214100         1.373146        -2.149194
 H         5.295686         0.197879        -1.179395
 H         3.132584        -1.450765         0.167246
 H         1.923493        -0.293465         2.000701
 H         1.049931         1.263528         1.607090
