19
Iteration:  2380charge 0 multiplicity 1
 C        -0.071267        -0.661202        -0.112209
 C         1.376883        -0.058381        -0.168490
 C         1.760398         1.199637        -0.967388
 C         3.115253         0.827699        -0.359957
 C         4.264129         0.589940        -1.345158
 O         3.461939        -0.641308        -1.858163
 C         2.754896        -0.703557        -0.467234
 O         3.058670         1.054632         1.023916
 C         1.748837         0.434726         1.232277
 H        -0.881739         0.020510        -0.240908
 H        -0.293858        -1.271373        -1.042978
 H        -0.164142        -1.394862         0.748492
 H         1.644272         0.909556        -2.035361
 H         1.289036         2.065977        -0.527313
 H         4.269663         1.349158        -2.231629
 H         5.268148         0.489730        -0.876712
 H         2.960046        -1.670591         0.089588
 H         1.939689        -0.393002         1.921252
 H         1.010072         1.155377         1.629743
