19
Iteration:  3135charge 0 multiplicity 1
 C        -0.057485        -0.718615        -0.249590
 C         1.346230        -0.112893        -0.071773
 C         1.856926         1.165393        -0.971895
 C         3.229629         0.743577        -0.277717
 C         4.190302         0.650814        -1.452152
 O         3.365944        -0.597292        -1.821531
 C         2.765160        -0.766677        -0.418442
 O         3.088557         1.168520         1.037250
 C         1.647393         0.487298         1.244574
 H        -0.692515         0.135305        -0.226199
 H        -0.052904        -1.391591        -1.111148
 H        -0.211612        -1.427439         0.600795
 H         1.741449         0.814504        -1.992288
 H         1.580347         2.174660        -0.726790
 H         4.229715         1.271241        -2.313069
 H         5.296725         0.304368        -1.229846
 H         3.055286        -1.684467         0.123279
 H         1.934921        -0.393969         1.897382
 H         0.863272         1.095889         1.724240
