19
Iteration:   681charge 0 multiplicity 1
 C        -0.097525        -0.727049        -0.218380
 C         1.358504        -0.101572        -0.089062
 C         1.801637         1.239443        -0.739462
 C         3.133618         0.796578        -0.325169
 C         4.187823         0.663659        -1.387394
 O         3.305421        -0.255228        -2.073382
 C         2.625607        -0.653014        -0.670445
 O         3.204821         0.891612         1.118431
 C         1.898176         0.135449         1.422043
 H        -0.905733        -0.416724         0.467596
 H        -0.418868        -0.446810        -1.267387
 H         0.040997        -1.744579        -0.221291
 H         1.644082         1.197745        -1.796971
 H         1.463953         2.124790        -0.291538
 H         4.322974         1.427330        -2.111379
 H         5.093098         0.286472        -1.047251
 H         3.166863        -1.578968        -0.394488
 H         2.110434        -0.741566         2.033701
 H         1.179966         0.893392         1.830816
