19
Iteration:  4867charge 0 multiplicity 1
 C        -0.109873        -0.754778        -0.094486
 C         1.383234        -0.018378        -0.068379
 C         1.798805         1.179717        -1.045526
 C         3.176547         0.784386        -0.313036
 C         4.354662         0.482409        -1.327116
 O         3.460988        -0.586969        -1.916053
 C         2.696518        -0.665973        -0.521886
 O         2.930136         1.187809         1.015466
 C         1.789184         0.414452         1.262286
 H        -1.013398        -0.183767         0.457709
 H        -0.437570        -0.695217        -1.149566
 H        -0.146775        -1.707850         0.404757
 H         1.625544         1.078434        -2.178446
 H         1.550777         2.148938        -0.734178
 H         4.643877         1.101722        -2.095912
 H         5.253735        -0.073565        -0.908174
 H         3.220800        -1.426717        -0.012239
 H         1.771569        -0.446814         2.035980
 H         0.960365         0.955768         1.713794
