19
Iteration:  4528charge 0 multiplicity 1
 C        -0.012254        -0.727542        -0.271198
 C         1.324601        -0.045210        -0.121273
 C         1.746023         1.223565        -0.938405
 C         3.113847         0.866611        -0.400472
 C         4.244469         0.492679        -1.365676
 O         3.439279        -0.647162        -1.767935
 C         2.711801        -0.670335        -0.486786
 O         3.036292         1.163267         1.002635
 C         1.829499         0.370641         1.309629
 H        -0.898112        -0.294059         0.271280
 H        -0.393003        -0.714204        -1.333605
 H        -0.042792        -1.749732         0.050886
 H         1.538862         1.095603        -1.978656
 H         1.227326         2.262613        -0.620824
 H         4.546489         1.141216        -2.159427
 H         5.181910         0.077109        -0.826975
 H         3.067447        -1.503209         0.230559
 H         2.157311        -0.443002         1.920279
 H         1.265131         1.168170         1.811271
