19
Iteration:  3384charge 0 multiplicity 1
 C        -0.025982        -0.788923        -0.263340
 C         1.310933         0.009388        -0.158710
 C         1.706547         1.304626        -0.875925
 C         3.122264         0.819411        -0.360144
 C         4.242267         0.523142        -1.437710
 O         3.469089        -0.773445        -1.735084
 C         2.718477        -0.636331        -0.469044
 O         3.116109         1.050938         1.018822
 C         1.765007         0.534896         1.269198
 H        -0.916372        -0.180280        -0.157457
 H        -0.039579        -1.016170        -1.318639
 H        -0.027976        -1.700825         0.380874
 H         1.775287         1.269413        -1.962307
 H         1.096023         2.199956        -0.500457
 H         4.228434         1.182276        -2.328112
 H         5.289857         0.324401        -1.192132
 H         2.971326        -1.422403         0.225012
 H         1.857801        -0.223521         2.116935
 H         1.087378         1.347088         1.578795
