19
Iteration:  4197
 C         0.022882        -0.831773        -0.309670
 C         1.295171        -0.011670        -0.222411
 C         1.687811         1.328470        -0.855762
 C         3.109232         0.818588        -0.444696
 C         4.242202         0.517037        -1.338437
 O         3.430236        -0.712845        -1.674426
 C         2.644660        -0.614264        -0.542123
 O         3.160026         1.110433         0.987837
 C         1.807806         0.447881         1.286205
 H        -0.840595        -0.199136        -0.141578
 H        -0.104584        -1.134214        -1.326179
 H        -0.003552        -1.668705         0.471111
 H         1.424610         1.453606        -1.933224
 H         1.299358         2.193161        -0.270694
 H         4.472841         1.349705        -2.025098
 H         5.155111         0.156986        -0.815525
 H         2.925155        -1.507488         0.143708
 H         2.065166        -0.499375         1.881554
 H         1.202757         1.062992         1.951069
