19
Iteration:  3894charge 0 multiplicity 1
 C         0.001810        -0.802485        -0.248193
 C         1.286055         0.055337        -0.153815
 C         1.706185         1.268351        -1.018615
 C         3.136537         0.886395        -0.369089
 C         4.243456         0.523971        -1.353544
 O         3.446725        -0.691034        -1.781955
 C         2.678587        -0.598908        -0.526284
 O         3.118701         1.055443         1.035756
 C         1.764042         0.394548         1.361953
 H        -0.963417        -0.330001        -0.438854
 H         0.245434        -1.373135        -1.109118
 H        -0.064263        -1.495842         0.627124
 H         1.690430         1.173299        -2.116716
 H         1.292887         2.257070        -0.493164
 H         4.338360         1.268304        -2.145610
 H         5.110132         0.048974        -0.891592
 H         3.208992        -1.342737         0.053032
 H         1.930901        -0.450278         1.996968
 H         1.118705         1.109393         1.977617
