19
Iteration:  4801
 C         0.013558        -0.781442        -0.379185
 C         1.211698         0.035052        -0.041300
 C         1.756665         1.206709        -0.897133
 C         3.163526         0.843851        -0.415292
 C         4.202454         0.406657        -1.481184
 O         3.419497        -0.653888        -1.802518
 C         2.813509        -0.639172        -0.416248
 O         3.083265         1.163963         1.042244
 C         1.748723         0.448700         1.355212
 H        -0.999112        -0.230542        -0.257951
 H        -0.075288        -1.057858        -1.450071
 H        -0.091209        -1.562428         0.340456
 H         1.701488         1.143156        -2.033806
 H         1.336826         2.137485        -0.525466
 H         4.394145         1.051747        -2.263206
 H         5.204026         0.188803        -1.000247
 H         3.161360        -1.319162         0.335372
 H         1.924415        -0.431990         2.085765
 H         1.232505         1.098473         2.065483
