19
Iteration:  4669
 C        -0.019935        -0.743771        -0.304909
 C         1.380199        -0.059529        -0.064703
 C         1.719935         1.191069        -0.964423
 C         3.201776         0.793039        -0.336402
 C         4.311068         0.416510        -1.345434
 O         3.306565        -0.644071        -1.910841
 C         2.760935        -0.626618        -0.438312
 O         2.955910         1.254323         1.030259
 C         1.826535         0.428248         1.377525
 H        -0.830299        -0.125656         0.185166
 H        -0.117695        -0.712706        -1.422550
 H        -0.030362        -1.780189        -0.057646
 H         1.659998         0.956866        -2.021986
 H         1.357402         2.296010        -0.780888
 H         4.519765         1.070313        -2.143888
 H         5.288267        -0.084073        -0.940892
 H         3.103184        -1.435758         0.239781
 H         2.256253        -0.456597         1.977000
 H         1.174965         1.146051         1.806939
