19
Iteration:  1773
 C        -0.077744        -0.730264        -0.150882
 C         1.359857        -0.082460        -0.186094
 C         1.718749         1.240426        -0.978292
 C         3.113466         0.846470        -0.298631
 C         4.243463         0.503929        -1.346506
 O         3.474076        -0.628010        -1.857360
 C         2.723962        -0.662727        -0.557904
 O         3.127776         1.057702         1.102467
 C         1.748688         0.478788         1.233437
 H        -0.850592        -0.019758        -0.509617
 H        -0.120469        -1.531869        -0.880325
 H        -0.301180        -1.225013         0.808092
 H         1.583877         1.166312        -2.064130
 H         1.233585         2.163812        -0.555336
 H         4.457341         1.307879        -2.200174
 H         5.098780         0.097566        -0.884276
 H         3.114977        -1.475523         0.068575
 H         1.902140        -0.361372         1.982571
 H         1.047441         1.292111         1.561603
