19
Iteration:   955charge 0 multiplicity 1
 C        -0.006622        -0.785545        -0.267878
 C         1.316630         0.000983        -0.201646
 C         1.609065         1.401678        -0.782388
 C         3.191810         0.809772        -0.333868
 C         4.303333         0.530582        -1.365935
 O         3.362140        -0.566015        -1.906221
 C         2.658256        -0.596294        -0.564158
 O         3.191993         1.001370         1.084570
 C         1.808864         0.305008         1.292785
 H        -0.536630        -1.027160         0.718082
 H        -0.891862        -0.436292        -1.034165
 H         0.287292        -1.770704        -0.644523
 H         1.405460         1.492830        -1.836208
 H         1.175076         2.111294        -0.113301
 H         4.343955         1.471709        -2.022018
 H         5.232565        -0.107604        -1.081570
 H         2.926893        -1.534226        -0.087240
 H         2.123704        -0.652019         1.721805
 H         1.250438         0.918206         2.029586
