19
Iteration:  2199
 C        -0.000289        -0.730125        -0.293437
 C         1.401487        -0.081631        -0.186303
 C         1.725058         1.205938        -0.918177
 C         3.104527         0.789002        -0.287268
 C         4.156413         0.468438        -1.336268
 O         3.345206        -0.618018        -1.915542
 C         2.752287        -0.702716        -0.469529
 O         3.051642         1.255350         1.014232
 C         1.857876         0.385070         1.362938
 H        -0.681595         0.246518        -0.413589
 H         0.062389        -1.336356        -1.242556
 H        -0.409174        -1.310258         0.617073
 H         1.895077         1.100015        -1.984892
 H         1.390710         2.149068        -0.649199
 H         4.476688         1.238905        -2.052696
 H         5.053513        -0.017499        -0.586875
 H         3.266021        -1.489538         0.099621
 H         2.311364        -0.399298         2.130784
 H         1.065995         1.037064         1.864670
