19
Iteration:  2305charge 0 multiplicity 1
 C         0.061694        -0.798836        -0.338873
 C         1.406719        -0.109372        -0.041461
 C         1.750186         1.245874        -0.967988
 C         3.136259         0.839437        -0.356131
 C         4.261979         0.419044        -1.334933
 O         3.286552        -0.573585        -1.810127
 C         2.676519        -0.660216        -0.478702
 O         3.034870         1.216793         0.993495
 C         1.838805         0.432481         1.343899
 H        -0.787890        -0.306887         0.227113
 H        -0.375112        -0.552512        -1.324106
 H        -0.024926        -1.879421        -0.231305
 H         1.717901         0.865054        -2.054948
 H         1.147293         2.177218        -0.534643
 H         4.810060         1.146348        -2.070453
 H         5.038274        -0.132022        -0.830101
 H         3.160126        -1.526750         0.012929
 H         2.153834        -0.264838         2.051705
 H         1.182389         1.188801         1.741909
