19
Iteration:   524
 C        -0.038930        -0.730049        -0.264216
 C         1.285313        -0.004094        -0.129425
 C         1.764568         1.392576        -0.598690
 C         3.185140         0.723324        -0.290820
 C         4.037007         0.834705        -1.505357
 O         3.367170        -0.336922        -2.060311
 C         2.649292        -0.639384        -0.666464
 O         3.241602         0.722750         1.148819
 C         1.916625         0.068329         1.342178
 H         0.124900        -1.806385        -0.421852
 H        -0.456777        -0.716668         0.759145
 H        -0.757086        -0.407979        -1.011349
 H         1.619535         1.745488        -1.674754
 H         1.528996         2.135590         0.248977
 H         3.801420         1.688493        -2.044615
 H         5.109556         0.717871        -1.452507
 H         3.081354        -1.647461        -0.424362
 H         2.031178        -0.996314         1.819326
 H         1.347456         0.787153         1.964234
