19
Iteration:  4608charge 0 multiplicity 1
 C         0.023504        -0.747051        -0.187089
 C         1.305570         0.023877        -0.167099
 C         1.830294         1.264974        -0.930771
 C         3.137615         0.805785        -0.368839
 C         4.188606         0.524751        -1.516082
 O         3.484868        -0.655900        -1.791993
 C         2.725168        -0.669321        -0.503328
 O         3.048171         1.030751         1.142844
 C         1.679848         0.469447         1.273580
 H        -0.880073        -0.134000        -0.245354
 H         0.093911        -1.375423        -1.094018
 H        -0.079696        -1.455606         0.693526
 H         1.777258         0.975103        -2.045790
 H         1.584236         2.249506        -0.687318
 H         4.086544         1.093390        -2.467853
 H         5.196045         0.412720        -1.171757
 H         2.995607        -1.552384         0.109647
 H         1.739436        -0.172859         2.206484
 H         1.027998         1.311185         1.718350
