19
Iteration:  3479
 C        -0.034517        -0.720929        -0.125353
 C         1.271492        -0.033926        -0.262814
 C         1.665262         1.247728        -0.987904
 C         3.133634         0.819909        -0.416604
 C         4.271154         0.489493        -1.388371
 O         3.541953        -0.624575        -1.749374
 C         2.680331        -0.624795        -0.458114
 O         3.169565         1.001949         1.054069
 C         1.659386         0.434778         1.248173
 H        -0.814682        -0.021487         0.307557
 H        -0.390147        -1.160268        -1.067459
 H         0.339859        -1.397203         0.648100
 H         1.587075         1.173556        -2.101370
 H         1.316323         2.219332        -0.665220
 H         4.555136         1.160058        -2.306239
 H         5.244372         0.398766        -0.946067
 H         3.129254        -1.279025         0.359012
 H         1.599794        -0.417028         1.903957
 H         1.047132         1.352290         1.513329
