19
Iteration:   318
 C        -0.084764        -0.788925        -0.265759
 C         1.282140        -0.072121        -0.138398
 C         1.743887         1.425169        -0.424617
 C         3.143659         0.750680        -0.257945
 C         4.033040         0.876621        -1.412114
 O         3.264484        -0.174619        -2.126127
 C         2.636004        -0.578311        -0.820652
 O         3.419942         0.523165         1.092451
 C         1.923319         0.095046         1.325557
 H         0.044564        -1.605194        -1.017767
 H        -0.274999        -1.434370         0.604403
 H        -0.975273        -0.203183        -0.443656
 H         1.440308         1.638263        -1.431000
 H         1.634161         2.123993         0.291257
 H         4.083563         1.793279        -2.042644
 H         5.121377         0.452595        -1.174962
 H         3.019408        -1.528929        -0.437328
 H         2.050869        -0.755991         1.953000
 H         1.536218         0.863351         1.984004
