19
Iteration:  4737
 C        -0.114809        -0.753587        -0.145362
 C         1.261164        -0.054973        -0.120229
 C         1.765181         1.157353        -0.924885
 C         3.142973         0.825781        -0.384036
 C         4.344884         0.570237        -1.359486
 O         3.482376        -0.673686        -1.866720
 C         2.746427        -0.609146        -0.526740
 O         3.066585         1.043552         1.025596
 C         1.706565         0.510517         1.311237
 H        -0.807563         0.111631         0.049348
 H        -0.399476        -1.157551        -1.128118
 H        -0.146679        -1.460364         0.656605
 H         1.834391         0.795391        -2.090868
 H         1.241356         2.150579        -0.821589
 H         4.484038         1.356133        -2.116457
 H         5.403042         0.239474        -0.992742
 H         3.266535        -1.519406        -0.109148
 H         1.651763        -0.228330         2.163199
 H         1.216571         1.456378         1.472437
