19
Iteration:  2704
 C        -0.035150        -0.684920        -0.135150
 C         1.314618        -0.122522        -0.182619
 C         1.791268         1.109303        -0.983995
 C         3.210287         0.678251        -0.248014
 C         4.270901         0.595192        -1.363699
 O         3.438741        -0.550169        -1.848129
 C         2.764331        -0.664326        -0.566373
 O         3.054216         1.181249         1.040725
 C         1.671295         0.441809         1.285376
 H        -0.704485        -0.219708         0.635206
 H        -0.688055        -0.546568        -1.008980
 H         0.023460        -1.744200         0.054245
 H         1.784720         0.807115        -2.096150
 H         1.198953         2.124997        -0.859367
 H         4.511358         1.405597        -2.037327
 H         5.145054        -0.093598        -1.093850
 H         3.049179        -1.586758        -0.034127
 H         1.709972        -0.343626         2.079907
 H         0.992144         1.290425         1.443761
