19
Iteration:  4653charge 0 multiplicity 1
 C         0.104049        -0.680894        -0.422271
 C         1.349824        -0.095935        -0.074935
 C         1.746911         1.132053        -0.888776
 C         3.115184         0.844965        -0.369972
 C         4.225367         0.446490        -1.343128
 O         3.267003        -0.626236        -1.761259
 C         2.695784        -0.690982        -0.492920
 O         3.097962         1.261766         0.973493
 C         1.847786         0.442406         1.364226
 H        -0.721270        -0.146340         0.028712
 H        -0.078117        -0.912462        -1.474469
 H        -0.094406        -1.729541         0.033030
 H         1.576493         0.970432        -1.992426
 H         1.341560         2.004789        -0.524674
 H         4.649522         1.152098        -2.141005
 H         4.949180        -0.043412        -0.775038
 H         3.260289        -1.445999         0.067660
 H         2.043459        -0.443137         2.128324
 H         0.967173         1.076671         1.818309
