19
Iteration:  1818charge 0 multiplicity 1
 C        -0.130982        -0.756366        -0.237760
 C         1.306964        -0.095882        -0.158223
 C         1.832607         1.170624        -0.983134
 C         3.189430         0.784303        -0.310062
 C         4.226711         0.485045        -1.364936
 O         3.376427        -0.604608        -1.814729
 C         2.783201        -0.658608        -0.473251
 O         3.086235         1.208528         1.063142
 C         1.788954         0.421109         1.290252
 H        -0.830220        -0.140886         0.360067
 H        -0.619319        -0.575494        -1.264466
 H        -0.152082        -1.877581        -0.043893
 H         2.002351         1.107565        -2.058083
 H         1.429708         2.184134        -0.704969
 H         4.139709         1.345260        -2.237552
 H         5.171967         0.256346        -0.889865
 H         3.259089        -1.565998        -0.053015
 H         1.954907        -0.418958         2.051038
 H         1.035826         1.240963         1.546164
