19
Iteration:  2888charge 0 multiplicity 1
 C        -0.059945        -0.718319        -0.243605
 C         1.380522        -0.066298        -0.161752
 C         1.732562         1.203416        -0.910672
 C         3.150393         0.800158        -0.310943
 C         4.153480         0.511019        -1.397766
 O         3.519410        -0.669782        -1.814226
 C         2.763823        -0.645059        -0.496811
 O         3.032850         1.172235         1.015750
 C         1.746354         0.404736         1.290902
 H        -0.751686        -0.297217         0.583752
 H        -0.451934        -0.434044        -1.241671
 H         0.095304        -1.752121        -0.030350
 H         1.714098         1.110737        -1.949423
 H         1.195176         2.042449        -0.638090
 H         4.180693         1.404942        -2.154708
 H         5.182598         0.211925        -1.089821
 H         3.099830        -1.421263         0.182400
 H         2.226400        -0.360357         1.872856
 H         1.024718         0.999488         1.837719
