19
Iteration:  3828
 C        -0.074061        -0.709684        -0.250110
 C         1.341512        -0.100543        -0.072574
 C         1.769595         1.125201        -1.017509
 C         3.131366         0.800702        -0.323423
 C         4.171535         0.559335        -1.379205
 O         3.436653        -0.566306        -1.808480
 C         2.819864        -0.712813        -0.494754
 O         3.109578         1.049305         1.019505
 C         1.729074         0.529810         1.324201
 H        -0.887155        -0.118512         0.125200
 H        -0.140230        -0.799069        -1.301260
 H        -0.025187        -1.681991         0.249040
 H         1.673593         0.817307        -2.026274
 H         1.178012         2.132722        -0.734464
 H         4.349644         1.361468        -2.183401
 H         5.207490         0.263006        -0.992529
 H         3.203566        -1.516769         0.136906
 H         1.785409        -0.085810         2.229989
 H         1.007242         1.412921         1.512834
