19
Iteration:  1174
 C        -0.098040        -0.679897        -0.279349
 C         1.256365        -0.079371        -0.116760
 C         1.716260         1.281152        -0.849959
 C         3.103816         0.870242        -0.338019
 C         4.174710         0.536578        -1.420726
 O         3.495519        -0.637386        -1.910412
 C         2.741934        -0.665354        -0.549501
 O         3.095243         1.177988         1.110846
 C         1.898725         0.259759         1.283953
 H        -0.171172        -1.421164        -1.096041
 H        -0.342701        -1.456072         0.559949
 H        -0.989499        -0.068653        -0.047816
 H         1.727419         1.204395        -1.975857
 H         1.284576         2.338549        -0.595167
 H         4.613818         1.117644        -2.174544
 H         5.108766         0.172683        -0.719525
 H         3.036570        -1.414153         0.175986
 H         2.350214        -0.649566         1.708790
 H         1.160941         0.676645         2.027443
