19
Iteration:  3317
 C        -0.041177        -0.644908        -0.173137
 C         1.355448        -0.172487        -0.186633
 C         1.762731         1.124232        -0.997667
 C         3.190143         0.838188        -0.354589
 C         4.262389         0.419825        -1.344749
 O         3.402697        -0.595356        -1.905420
 C         2.738682        -0.679208        -0.408662
 O         2.969851         1.262146         1.079823
 C         1.829727         0.394843         1.262480
 H        -0.677585         0.252247        -0.186403
 H        -0.378783        -1.167742        -1.064933
 H        -0.428265        -1.250259         0.642660
 H         1.716904         1.263042        -2.162688
 H         1.123103         1.960850        -0.625512
 H         4.670838         1.133012        -2.114555
 H         5.132428         0.091604        -0.829856
 H         3.277349        -1.443930         0.154962
 H         2.185796        -0.442464         1.937003
 H         0.996357         0.992055         1.722526
