19
Iteration:   871
 C        -0.044917        -0.713135        -0.188620
 C         1.318090        -0.112110        -0.116475
 C         1.752614         1.291560        -0.755233
 C         3.174662         0.706520        -0.314772
 C         4.218185         0.689834        -1.384857
 O         3.388023        -0.491051        -2.028859
 C         2.743973        -0.670906        -0.683313
 O         3.148751         0.913057         1.158527
 C         1.742669         0.370171         1.310357
 H        -0.792093        -0.119823        -0.737298
 H         0.063028        -1.662319        -0.615098
 H        -0.415984        -0.856791         0.879859
 H         1.696256         1.481684        -1.832327
 H         1.539557         2.253430        -0.252731
 H         4.166854         1.465331        -2.247908
 H         5.226159         0.463206        -1.198234
 H         3.186078        -1.596935        -0.165897
 H         1.730377        -0.612237         1.900285
 H         0.906927         1.104635         1.617995
