19
Iteration:  3356charge 0 multiplicity 1
 C        -0.135948        -0.752786        -0.131593
 C         1.313497        -0.063567        -0.169364
 C         1.774529         1.196356        -0.985934
 C         3.119017         0.767158        -0.350045
 C         4.222517         0.542693        -1.302132
 O         3.523874        -0.652843        -1.874213
 C         2.656755        -0.672135        -0.477007
 O         3.118577         1.106153         1.036084
 C         1.805146         0.526904         1.229819
 H        -0.890135         0.016303        -0.389395
 H        -0.081517        -1.336408        -1.069057
 H        -0.297024        -1.300612         0.807826
 H         1.834406         1.119820        -2.061658
 H         1.409646         2.109397        -0.547878
 H         4.333322         1.382661        -2.031528
 H         5.220999         0.243880        -0.896124
 H         2.962000        -1.574211         0.109142
 H         1.856097        -0.271233         1.944092
 H         1.066511         1.239959         1.607684
