19
Iteration:  3870charge 0 multiplicity 1
 C         0.022535        -0.840292        -0.313844
 C         1.370195        -0.056592        -0.203124
 C         1.753905         1.299039        -0.879850
 C         3.168829         0.870013        -0.332745
 C         4.237799         0.437922        -1.352164
 O         3.307029        -0.599867        -1.771259
 C         2.706069        -0.705266        -0.462893
 O         3.029331         1.250676         1.030912
 C         1.838008         0.374131         1.237396
 H        -0.793352        -0.091400        -0.345384
 H        -0.053955        -1.513713        -1.209150
 H        -0.081925        -1.417554         0.693449
 H         1.752068         1.156838        -1.930420
 H         1.642580         2.396949        -0.481086
 H         4.294433         1.074406        -2.136755
 H         5.099181        -0.067307        -0.896706
 H         3.128608        -1.572430        -0.034323
 H         2.088669        -0.433375         1.894721
 H         1.123452         0.936268         1.808093
