19
Iteration:  1663
 C         0.000339        -0.737244        -0.154457
 C         1.296398        -0.038721        -0.174027
 C         1.734665         1.316036        -0.941164
 C         3.091627         0.742362        -0.304975
 C         4.232941         0.577830        -1.344690
 O         3.488240        -0.630029        -1.879232
 C         2.705406        -0.704210        -0.609046
 O         3.062858         1.029684         1.046692
 C         1.792198         0.488116         1.363765
 H        -0.222580        -1.003893        -1.220020
 H        -0.028971        -1.717163         0.265338
 H        -0.899610        -0.209635         0.294450
 H         1.770857         1.157109        -2.001526
 H         1.536822         2.332666        -0.649299
 H         4.349057         1.119417        -2.360765
 H         5.167130         0.357713        -0.971392
 H         3.136938        -1.554006        -0.103643
 H         1.887573        -0.343555         2.149215
 H         0.998681         1.156395         1.723921
