19
Iteration:  2738
 C        -0.094194        -0.724980        -0.292007
 C         1.332907        -0.089225        -0.173580
 C         1.718787         1.243852        -0.928967
 C         3.085021         0.775773        -0.345422
 C         4.180750         0.528117        -1.341987
 O         3.468983        -0.681460        -1.812643
 C         2.766912        -0.619653        -0.537494
 O         3.083242         1.201316         0.997014
 C         1.838973         0.366056         1.376193
 H        -0.762926         0.010135         0.113168
 H        -0.248814        -0.939118        -1.360954
 H        -0.224106        -1.681601         0.260113
 H         1.804802         1.023130        -2.007472
 H         1.306136         2.276287        -0.478807
 H         4.482185         1.171610        -2.113857
 H         5.123352         0.181929        -0.700332
 H         3.295251        -1.370116         0.066608
 H         2.080965        -0.353630         2.183487
 H         1.112129         1.025384         1.833325
