19
Iteration:  3142charge 0 multiplicity 1
 C        -0.046262        -0.681270        -0.183999
 C         1.304817        -0.085698        -0.133408
 C         1.812567         1.157094        -0.929189
 C         3.174328         0.740933        -0.287282
 C         4.228030         0.646412        -1.492033
 O         3.436953        -0.650464        -1.797599
 C         2.815167        -0.747868        -0.512827
 O         3.055317         1.129637         1.057191
 C         1.657763         0.513055         1.290275
 H        -1.019550        -0.042781        -0.339398
 H        -0.016289        -1.261294        -1.125348
 H        -0.289685        -1.247072         0.760780
 H         1.999824         0.824162        -2.012668
 H         1.562459         2.164419        -0.601474
 H         4.061383         1.353324        -2.351791
 H         5.311640         0.311005        -1.288437
 H         3.235307        -1.607624         0.032373
 H         1.855097        -0.331376         1.909792
 H         0.823271         1.079680         1.679385
