19
Iteration:  2600
 C         0.033738        -0.682341        -0.327123
 C         1.350991        -0.102385        -0.129537
 C         1.763365         1.084103        -0.906310
 C         3.165758         0.785702        -0.325225
 C         4.200642         0.551432        -1.415360
 O         3.377082        -0.593522        -1.853986
 C         2.749267        -0.718960        -0.514202
 O         3.072819         1.152917         1.149787
 C         1.757738         0.506484         1.316254
 H        -0.747198         0.091846        -0.359115
 H        -0.070376        -1.417497        -1.142604
 H        -0.342056        -1.102623         0.682473
 H         1.683069         0.967913        -1.931851
 H         1.409956         2.031643        -0.723206
 H         4.265479         1.242283        -2.344394
 H         5.172169         0.182786        -1.239049
 H         3.199882        -1.549126         0.054813
 H         1.871708        -0.254987         2.256472
 H         0.858579         1.190323         1.466949
