19
Iteration:  4116
 C        -0.062634        -0.704524        -0.234829
 C         1.259645        -0.013396        -0.151512
 C         1.687527         1.233805        -0.947802
 C         3.121609         0.825523        -0.386875
 C         4.241736         0.569021        -1.340974
 O         3.481257        -0.698152        -1.764959
 C         2.714092        -0.670660        -0.543146
 O         3.129569         1.132035         1.037445
 C         1.818063         0.346165         1.294312
 H        -0.774160        -0.095295         0.329400
 H        -0.375686        -0.874325        -1.290606
 H         0.052488        -1.637813         0.252819
 H         1.819961         1.169576        -2.085731
 H         1.261274         2.221254        -0.693473
 H         4.461914         1.347433        -2.108330
 H         5.148010         0.328330        -0.875799
 H         2.959893        -1.526411         0.111091
 H         2.062886        -0.452357         1.924995
 H         1.007482         0.965274         1.637309
