19
Iteration:    27
 C        -0.046836        -0.729891        -0.233567
 C         1.323777        -0.016272        -0.084322
 C         1.793369         1.497380        -0.216089
 C         3.142426         0.790739        -0.241804
 C         4.040465         0.953602        -1.450541
 O         3.151135        -0.030881        -2.181695
 C         2.569808        -0.470151        -0.946525
 O         3.307441         0.486066         1.132211
 C         2.144185        -0.413358         1.240906
 H        -0.548071        -1.111597         0.721851
 H        -0.949961        -0.247472        -0.700083
 H         0.223451        -1.501018        -0.944352
 H         1.319900         1.899872        -1.163972
 H         1.490511         2.219276         0.617045
 H         4.201519         1.920929        -2.091693
 H         5.082720         0.614679        -1.275460
 H         2.905078        -1.497053        -0.818692
 H         2.454176        -1.431663         1.307875
 H         1.631291        -0.069602         2.145080
