19
Iteration:   297
 C        -0.005638        -0.697427        -0.198111
 C         1.359058        -0.130715        -0.116052
 C         1.744711         1.333527        -0.550393
 C         3.179860         0.702518        -0.217459
 C         4.123503         0.864279        -1.489843
 O         3.212234        -0.087623        -2.186834
 C         2.613213        -0.577497        -0.849057
 O         3.273943         0.576464         1.177198
 C         1.969029         0.010657         1.448852
 H        -0.043581        -1.740156        -0.597817
 H        -0.595150        -0.775451         0.709556
 H        -0.574524        -0.065059        -0.797429
 H         1.579937         1.524646        -1.596085
 H         1.335255         2.006290         0.087942
 H         4.019612         1.901702        -1.888876
 H         5.203972         0.569536        -1.525777
 H         2.957265        -1.595308        -0.742567
 H         2.032893        -0.960518         1.967877
 H         1.259718         0.667963         2.026340
