19
Iteration:  3382
 C        -0.035720        -0.799422        -0.266634
 C         1.290936         0.017489        -0.175877
 C         1.702064         1.311745        -0.869367
 C         3.126535         0.811145        -0.358064
 C         4.250664         0.528202        -1.431733
 O         3.468991        -0.763409        -1.723233
 C         2.730172        -0.654633        -0.491357
 O         3.131755         1.051639         1.007799
 C         1.755719         0.530566         1.283689
 H        -0.878389        -0.135166        -0.152408
 H        -0.060449        -1.049515        -1.285170
 H         0.021908        -1.610262         0.434066
 H         1.795966         1.234636        -2.005316
 H         1.073317         2.129281        -0.474202
 H         4.211251         1.220434        -2.409582
 H         5.304829         0.320963        -1.157781
 H         2.928162        -1.443262         0.260190
 H         1.847778        -0.171001         2.175109
 H         1.059085         1.365025         1.607363
