19
Iteration:  3642
 C        -0.105788        -0.716879        -0.248833
 C         1.375284        -0.128994        -0.015908
 C         1.667323         1.107188        -0.978721
 C         3.156679         0.758981        -0.380288
 C         4.253848         0.478936        -1.240798
 O         3.475843        -0.537059        -1.911493
 C         2.781386        -0.737040        -0.611738
 O         3.053240         1.199438         0.993602
 C         1.748704         0.519043         1.363052
 H        -0.877403        -0.026910         0.248590
 H        -0.404647        -0.603071        -1.316462
 H        -0.421713        -1.694887         0.231110
 H         1.736532         0.884126        -2.004303
 H         1.304518         2.102131        -0.676074
 H         4.674342         1.257720        -1.928673
 H         5.139189         0.000900        -0.699705
 H         3.370783        -1.440651         0.056274
 H         2.240180        -0.211210         2.006386
 H         0.999225         1.181364         1.951936
