19
Iteration:    24
 C        -0.026658        -0.737099        -0.228062
 C         1.318709        -0.031009        -0.081456
 C         1.804072         1.523305        -0.230649
 C         3.130947         0.763878        -0.263068
 C         4.041757         0.962437        -1.424466
 O         3.146571        -0.015733        -2.187911
 C         2.572427        -0.490278        -0.911967
 O         3.312187         0.498227         1.111334
 C         2.123138        -0.411589         1.226012
 H        -0.539439        -1.071844         0.709750
 H        -0.806305        -0.163465        -0.788007
 H         0.178388        -1.573552        -0.821655
 H         1.333838         1.962520        -1.118314
 H         1.585887         2.175157         0.644202
 H         4.111056         1.917644        -2.013716
 H         5.036153         0.584150        -1.308785
 H         2.890481        -1.467232        -0.691669
 H         2.408826        -1.442185         1.227267
 H         1.642238        -0.172206         2.170691
