19
Iteration:  1240
 C        -0.056583        -0.846296        -0.228880
 C         1.293202        -0.094663        -0.104567
 C         1.848465         1.343995        -0.897318
 C         3.182530         0.757907        -0.333065
 C         4.290737         0.589810        -1.422022
 O         3.372804        -0.579746        -1.898408
 C         2.675914        -0.650277        -0.508201
 O         3.066948         0.995908         1.087904
 C         1.732046         0.515948         1.300772
 H        -0.637271        -0.725920        -1.163451
 H         0.238870        -1.955348        -0.277528
 H        -0.557689        -0.728061         0.734927
 H         1.841927         1.258827        -2.026137
 H         1.420227         2.378509        -0.485194
 H         4.378104         1.322508        -2.198896
 H         5.325998         0.108301        -1.049366
 H         3.250063        -1.448969        -0.058586
 H         1.878921        -0.204425         2.136511
 H         0.980790         1.358238         1.506048
