19
Iteration:  2409charge 0 multiplicity 1
 C        -0.131228        -0.706748        -0.191836
 C         1.341098        -0.110191        -0.137508
 C         1.749097         1.107292        -0.935020
 C         3.150601         0.804157        -0.349135
 C         4.354891         0.472330        -1.260075
 O         3.408319        -0.510123        -1.959782
 C         2.739852        -0.711061        -0.519388
 O         3.028734         1.233221         0.999085
 C         1.834072         0.443436         1.321306
 H        -0.924734         0.106639        -0.227893
 H        -0.280341        -1.467682        -0.976595
 H        -0.517124        -1.242221         0.724137
 H         1.607627         0.904170        -2.001854
 H         1.200068         2.039976        -0.688832
 H         4.652108         1.129408        -1.999518
 H         5.108963        -0.067377        -0.650281
 H         3.159040        -1.657085        -0.135859
 H         2.184912        -0.430994         2.018319
 H         1.113438         0.956607         1.991486
