19
Iteration:  2851charge 0 multiplicity 1
 C        -0.059401        -0.718048        -0.155664
 C         1.262497        -0.035505        -0.191837
 C         1.689474         1.239177        -0.966710
 C         3.143465         0.888025        -0.363923
 C         4.280075         0.475612        -1.371253
 O         3.555276        -0.651183        -1.790110
 C         2.692518        -0.616946        -0.561376
 O         3.047240         1.125798         1.034144
 C         1.814339         0.361591         1.307958
 H        -0.838929        -0.168592         0.394009
 H        -0.533243        -0.979476        -1.110651
 H         0.043901        -1.758891         0.248148
 H         1.686572         1.097277        -2.115564
 H         1.030858         2.105243        -0.608854
 H         4.389274         1.327724        -2.114992
 H         5.277300         0.202163        -0.957373
 H         3.108461        -1.436540         0.081625
 H         2.023908        -0.546821         1.806442
 H         1.056315         0.862035         1.934924
