19
Iteration:  1901charge 0 multiplicity 1
 C         0.010311        -0.699028        -0.225280
 C         1.411398        -0.062884        -0.135481
 C         1.842380         1.154444        -1.007112
 C         3.173528         0.742666        -0.294438
 C         4.225404         0.533250        -1.346212
 O         3.323601        -0.588200        -1.842449
 C         2.757139        -0.705412        -0.498950
 O         3.031046         1.102138         1.060751
 C         1.669796         0.528755         1.264194
 H        -0.397181        -0.627951         0.829412
 H        -0.621224        -0.344285        -1.009519
 H         0.122160        -1.760182        -0.320068
 H         1.950383         0.865378        -2.047833
 H         1.324225         2.119257        -0.773903
 H         4.323057         1.343493        -1.933847
 H         5.282291         0.265355        -1.032315
 H         3.235399        -1.610336        -0.061740
 H         1.906462        -0.114676         2.080935
 H         0.871911         1.160673         1.525742
