19
Iteration:  2006charge 0 multiplicity 1
 C         0.010590        -0.785983        -0.274135
 C         1.391531        -0.117491        -0.130878
 C         1.839299         1.198732        -0.922889
 C         3.195197         0.815778        -0.270330
 C         4.190941         0.471656        -1.392817
 O         3.276913        -0.534406        -1.878977
 C         2.790813        -0.753849        -0.486760
 O         3.077643         1.158257         1.082199
 C         1.716643         0.495349         1.277987
 H        -0.684689        -0.132907        -0.628317
 H        -0.115438        -1.508211        -1.129262
 H        -0.402651        -1.326644         0.615890
 H         1.715553         1.125557        -2.013615
 H         1.534246         2.227286        -0.479185
 H         4.174910         1.367306        -2.146785
 H         5.053473         0.125920        -0.907912
 H         3.335117        -1.533594         0.034694
 H         1.724737        -0.216085         2.139705
 H         1.126765         1.420548         1.493171
