19
Iteration:  4816
 C        -0.020005        -0.773347        -0.309370
 C         1.332972        -0.035196        -0.109687
 C         1.730195         1.249688        -0.871332
 C         3.132001         0.805001        -0.355368
 C         4.268787         0.575567        -1.452618
 O         3.434306        -0.736405        -1.767116
 C         2.689716        -0.596810        -0.475496
 O         3.125424         1.029691         1.029994
 C         1.720167         0.545172         1.327484
 H        -0.883476        -0.250073         0.021935
 H        -0.074563        -1.061993        -1.354029
 H         0.038992        -1.756815         0.242952
 H         1.578900         0.943986        -1.989558
 H         1.345945         2.301599        -0.710860
 H         4.286018         1.242446        -2.401669
 H         5.241273         0.239653        -1.086125
 H         3.195249        -1.395061         0.139598
 H         1.796129        -0.173351         2.171159
 H         1.031309         1.392802         1.552922
