19
Iteration:   908
 C         0.016327        -0.683362        -0.264630
 C         1.319784        -0.058886        -0.118738
 C         1.672697         1.163097        -0.869504
 C         3.189876         0.723488        -0.300061
 C         4.278525         0.654878        -1.453663
 O         3.272220        -0.459837        -1.916845
 C         2.730356        -0.649427        -0.587350
 O         3.096347         0.997730         1.166522
 C         1.856162         0.277700         1.326429
 H        -0.661610         0.183143         0.006210
 H        -0.207786        -0.739570        -1.448756
 H        -0.346687        -1.659289         0.249179
 H         1.716551         1.125304        -1.989500
 H         1.362556         2.153776        -0.401110
 H         4.268472         1.462097        -2.085838
 H         5.302286         0.352578        -1.037576
 H         3.165203        -1.501328        -0.130792
 H         2.165075        -0.610501         1.892585
 H         1.324978         0.916556         1.993249
