19
Iteration:   189charge 0 multiplicity 1
 C         0.012368        -0.673370        -0.145108
 C         1.415254        -0.082974        -0.152251
 C         1.805232         1.277609        -0.491715
 C         3.205202         0.656018        -0.195099
 C         4.046711         0.883017        -1.432222
 O         3.038106         0.055377        -2.211356
 C         2.747256        -0.590782        -0.903496
 O         3.267117         0.516895         1.220712
 C         1.945494        -0.076671         1.320604
 H        -0.768997         0.132140        -0.056703
 H        -0.116096        -1.128184        -1.125425
 H        -0.138262        -1.319191         0.619961
 H         1.630012         1.635887        -1.522747
 H         1.473628         2.038986         0.242682
 H         4.141795         1.925087        -1.798301
 H         4.943334         0.395779        -1.496921
 H         3.188278        -1.559282        -0.914274
 H         2.041193        -1.122436         1.676868
 H         1.343744         0.551022         2.040948
