19
Iteration:  2113charge 0 multiplicity 1
 C        -0.112736        -0.739647        -0.168363
 C         1.323958        -0.088872        -0.130795
 C         1.796626         1.138353        -1.018660
 C         3.169094         0.774732        -0.314540
 C         4.264943         0.556120        -1.337343
 O         3.398438        -0.573509        -1.851213
 C         2.778586        -0.673470        -0.484757
 O         3.068886         1.135991         0.995905
 C         1.747960         0.479240         1.296865
 H        -0.822225        -0.502321         0.625880
 H        -0.448752        -0.543142        -1.208270
 H        -0.248234        -1.866257        -0.199129
 H         1.679734         1.004460        -2.096012
 H         1.678358         2.183187        -0.741858
 H         4.598038         1.422967        -1.862789
 H         5.215239         0.157938        -0.991628
 H         3.122057        -1.557566         0.168288
 H         1.960901        -0.293141         2.013640
 H         0.921900         1.060274         1.696132
