19
Iteration:  1064charge 0 multiplicity 1
 C        -0.056107        -0.763786        -0.269098
 C         1.316045        -0.048112        -0.170494
 C         1.710083         1.333186        -0.844152
 C         3.147704         0.873661        -0.343710
 C         4.253093         0.548751        -1.430192
 O         3.396633        -0.609121        -1.838258
 C         2.653169        -0.609410        -0.577236
 O         3.113494         1.107352         1.100671
 C         1.903748         0.219074         1.331121
 H         0.216309        -1.808913        -0.592106
 H        -0.794246        -0.690142         0.678940
 H        -0.608014        -0.196437        -1.013968
 H         1.693268         1.241085        -1.936095
 H         1.137858         2.204977        -0.435947
 H         4.420268         1.071862        -2.305315
 H         5.249221         0.259429        -0.934497
 H         2.792764        -1.530154        -0.045064
 H         2.089141        -0.651936         1.967917
 H         1.265941         0.912605         1.893515
