19
Iteration:  3268
 C         0.016641        -0.808122        -0.309751
 C         1.259058         0.026547        -0.128440
 C         1.716067         1.270492        -0.887764
 C         3.135554         0.810928        -0.390116
 C         4.162139         0.511937        -1.436388
 O         3.508714        -0.754160        -1.795288
 C         2.704184        -0.636307        -0.463224
 O         3.136238         1.040471         1.106991
 C         1.778506         0.612617         1.319815
 H        -0.922523        -0.588061         0.190686
 H        -0.435593        -0.856576        -1.337049
 H         0.187526        -1.859058         0.020838
 H         1.759825         0.976192        -1.892447
 H         1.367292         2.309621        -1.009285
 H         4.205616         1.286481        -2.281299
 H         5.287501         0.292034        -1.223897
 H         2.870566        -1.452232         0.270842
 H         1.806459        -0.139365         2.126736
 H         1.049704         1.410189         1.535793
