19
Iteration:   958
 C        -0.012114        -0.772687        -0.259620
 C         1.314445         0.014589        -0.201253
 C         1.600379         1.382135        -0.796157
 C         3.205876         0.810541        -0.319593
 C         4.304464         0.504910        -1.373894
 O         3.359015        -0.550279        -1.918275
 C         2.659216        -0.603984        -0.568695
 O         3.200115         0.990022         1.105299
 C         1.774950         0.299382         1.285967
 H        -0.449902        -1.071805         0.668269
 H        -0.799944        -0.482472        -0.854665
 H         0.380951        -1.681275        -0.633556
 H         1.456915         1.457192        -1.851285
 H         1.150496         2.164236        -0.219114
 H         4.312120         1.513007        -2.014265
 H         5.240688         0.055304        -1.113072
 H         2.964728        -1.595707        -0.081341
 H         2.175433        -0.601663         1.764003
 H         1.212667         1.012518         1.968791
