19
Iteration:  3771
 C        -0.029171        -0.719178        -0.194042
 C         1.305588         0.005178        -0.125937
 C         1.738830         1.230464        -0.953916
 C         3.144208         0.811806        -0.421695
 C         4.341199         0.527277        -1.358968
 O         3.454948        -0.717750        -1.851439
 C         2.745268        -0.603004        -0.449538
 O         2.947356         1.185624         1.033164
 C         1.797088         0.369069         1.258419
 H        -0.723102        -0.204853         0.447387
 H        -0.448043        -0.949554        -1.229873
 H         0.202870        -1.759413         0.173411
 H         1.380311         0.953376        -2.014740
 H         1.306058         2.296073        -0.580801
 H         4.521015         1.240505        -2.129995
 H         5.188485        -0.037231        -0.839306
 H         3.125931        -1.365316         0.222272
 H         2.174544        -0.509740         1.835320
 H         1.072347         0.817140         1.982361
