19
Iteration:  3010charge 0 multiplicity 1
 C        -0.110252        -0.627348        -0.206126
 C         1.333088        -0.191527        -0.066329
 C         1.718288         1.043648        -0.912581
 C         3.118058         0.760329        -0.343859
 C         4.234417         0.577668        -1.365929
 O         3.545149        -0.552718        -1.950190
 C         2.714048        -0.718854        -0.498977
 O         3.110369         1.144463         1.033951
 C         1.746499         0.486586         1.335238
 H        -0.702360         0.330308        -0.129829
 H        -0.235832        -0.935515        -1.258832
 H        -0.296388        -1.459032         0.497682
 H         1.600051         0.913250        -1.946651
 H         1.163060         1.923352        -0.793418
 H         4.334991         1.424558        -2.128274
 H         5.234613         0.295689        -0.838291
 H         3.304204        -1.429537         0.056705
 H         1.899161        -0.205297         2.160647
 H         0.921695         1.125866         1.571615
