19
Iteration:  3832charge 0 multiplicity 1
 C        -0.037239        -0.715500        -0.262637
 C         1.344946        -0.081906        -0.047868
 C         1.772227         1.122526        -0.981490
 C         3.140071         0.839850        -0.348069
 C         4.188721         0.534979        -1.370253
 O         3.414560        -0.563011        -1.844382
 C         2.817229        -0.734637        -0.476506
 O         3.078238         1.064508         1.033409
 C         1.728964         0.525793         1.330755
 H        -0.899767        -0.087390         0.090190
 H        -0.203907        -0.883889        -1.356161
 H        -0.156365        -1.670743         0.244534
 H         1.568395         0.773219        -2.034421
 H         1.358048         2.072863        -0.892827
 H         4.439367         1.432021        -2.072455
 H         5.189636         0.206480        -1.119630
 H         3.268724        -1.594057         0.130990
 H         1.875429        -0.079306         2.266446
 H         0.974118         1.333207         1.425660
