19
Iteration:   547charge 0 multiplicity 1
 C        -0.024434        -0.772625        -0.096907
 C         1.303612        -0.010234        -0.142579
 C         1.829878         1.390919        -0.632674
 C         3.171689         0.821953        -0.253045
 C         4.120895         0.838263        -1.493089
 O         3.342529        -0.345088        -2.035915
 C         2.634611        -0.554959        -0.809623
 O         3.213269         0.666447         1.176805
 C         1.834418         0.065363         1.300358
 H         0.001043        -1.625381        -0.854071
 H        -0.284461        -1.267324         0.896540
 H        -0.808284        -0.198086        -0.485638
 H         1.682072         1.269211        -1.737745
 H         1.463681         2.386866        -0.221949
 H         3.990382         1.627304        -2.103523
 H         5.147777         0.527366        -1.504881
 H         3.096600        -1.535554        -0.481918
 H         2.020983        -0.970172         1.798970
 H         1.107774         0.720803         1.800941
