19
Iteration:   584
 C        -0.048692        -0.688004        -0.235479
 C         1.386312        -0.204034        -0.055711
 C         1.684405         1.230996        -0.615483
 C         3.156054         0.818309        -0.291327
 C         4.233194         0.612713        -1.317458
 O         3.196264        -0.155746        -2.050344
 C         2.667521        -0.621645        -0.836656
 O         3.196466         0.918596         1.089711
 C         1.979138         0.060338         1.300610
 H        -0.230960        -0.889178        -1.313688
 H        -0.208663        -1.651413         0.350820
 H        -0.783236         0.000467         0.311132
 H         1.477236         1.303136        -1.656334
 H         1.264019         2.033850        -0.092588
 H         4.546162         1.561622        -1.893922
 H         5.064469        -0.041352        -0.974159
 H         3.082441        -1.624938        -0.614100
 H         2.315561        -0.726061         1.912173
 H         1.247535         0.753192         1.782602
