19
Iteration:  1593
 C        -0.074419        -0.730369        -0.312029
 C         1.289751        -0.050352        -0.076766
 C         1.759563         1.227137        -0.856679
 C         3.182896         0.724382        -0.323698
 C         4.290329         0.563595        -1.395379
 O         3.345625        -0.540401        -1.848483
 C         2.767938        -0.701219        -0.555076
 O         3.091313         1.100962         1.027232
 C         1.808007         0.400507         1.316415
 H        -0.014343        -1.679958        -0.767716
 H        -0.579481        -1.017440         0.614009
 H        -0.818751        -0.182894        -0.736509
 H         1.677774         1.036849        -1.970809
 H         1.342126         2.234774        -0.438875
 H         4.125253         1.377420        -2.059212
 H         5.318772         0.382485        -1.238440
 H         3.169594        -1.534612         0.032188
 H         2.097312        -0.432730         2.053544
 H         1.158131         1.065224         1.919071
