19
Iteration:  4164
 C         0.017141        -0.799069        -0.254344
 C         1.301041        -0.102407        -0.106376
 C         1.841313         1.151486        -0.948871
 C         3.217568         0.801660        -0.297753
 C         4.260929         0.469706        -1.419368
 O         3.337304        -0.560885        -1.877176
 C         2.728514        -0.616280        -0.529184
 O         3.080230         1.115829         1.119388
 C         1.671796         0.578737         1.343575
 H        -0.748282        -0.267726         0.294378
 H        -0.126269        -0.784143        -1.303151
 H         0.096448        -1.895243        -0.029869
 H         1.609988         0.857501        -1.954450
 H         1.304023         2.128404        -0.870683
 H         4.479208         1.287835        -2.165665
 H         5.189143        -0.047537        -1.055207
 H         3.198277        -1.559393        -0.063806
 H         1.620888        -0.343995         1.997270
 H         0.991337         1.364977         1.659608
