19
Iteration:  4607charge 0 multiplicity 1
 C         0.028290        -0.741978        -0.175259
 C         1.300883         0.025631        -0.164538
 C         1.832755         1.267582        -0.938023
 C         3.142074         0.805228        -0.362702
 C         4.180933         0.522824        -1.517117
 O         3.486567        -0.656206        -1.797476
 C         2.732204        -0.669183        -0.496866
 O         3.044549         1.025990         1.140788
 C         1.677717         0.468917         1.270417
 H        -0.881207        -0.133343        -0.232146
 H         0.097296        -1.387096        -1.065948
 H        -0.096719        -1.441743         0.656249
 H         1.778616         0.977981        -2.055389
 H         1.543506         2.295692        -0.688301
 H         4.091378         1.105265        -2.434270
 H         5.218106         0.416332        -1.146433
 H         3.009086        -1.583372         0.103088
 H         1.766173        -0.189232         2.151616
 H         0.994921         1.293413         1.661956
