19
Iteration:  4722
 C        -0.035180        -0.685386        -0.082236
 C         1.306443        -0.031632        -0.187187
 C         1.714794         1.199134        -1.020719
 C         3.110200         0.786494        -0.384782
 C         4.202276         0.546372        -1.385666
 O         3.585987        -0.620165        -1.804517
 C         2.729358        -0.688521        -0.548111
 O         3.114454         0.943274         1.080914
 C         1.680208         0.575064         1.230459
 H        -0.844495        -0.037799         0.380439
 H        -0.300776        -1.211186        -1.025688
 H         0.029996        -1.601366         0.552643
 H         1.649566         1.148479        -2.027909
 H         1.308455         2.165882        -0.674399
 H         4.381210         1.206294        -2.217084
 H         5.065194         0.302039        -0.778651
 H         3.041461        -1.337226         0.224864
 H         1.764352        -0.233774         2.056637
 H         0.963848         1.425311         1.452057
