19
Iteration:  1463charge 0 multiplicity 1
 C        -0.110839        -0.761201        -0.224862
 C         1.295302        -0.053980        -0.229675
 C         1.766528         1.223967        -0.934152
 C         3.138328         0.781939        -0.343995
 C         4.211226         0.611273        -1.439207
 O         3.504599        -0.643838        -1.850690
 C         2.670573        -0.684528        -0.532919
 O         3.178984         1.049359         1.194993
 C         1.770238         0.465178         1.306729
 H        -0.697526        -0.532082        -1.097230
 H         0.193849        -1.839909        -0.163091
 H        -0.774135        -0.533834         0.594347
 H         1.576786         1.268461        -2.009802
 H         1.358901         2.198115        -0.643933
 H         4.078331         1.463543        -2.275820
 H         5.225739         0.429644        -1.192040
 H         3.038796        -1.332101         0.198464
 H         1.832176        -0.399500         1.993878
 H         1.097189         1.212669         1.696655
