19
Iteration:  3451charge 0 multiplicity 1
 C        -0.060600        -0.746675        -0.235055
 C         1.303375        -0.115159        -0.144907
 C         1.772633         1.225638        -0.953604
 C         3.132561         0.825180        -0.339980
 C         4.256322         0.496449        -1.305485
 O         3.423209        -0.660708        -1.872311
 C         2.732392        -0.732985        -0.506401
 O         3.081678         1.218009         0.946182
 C         1.737564         0.487608         1.378822
 H        -0.791353        -0.288303         0.399474
 H        -0.395244        -0.654729        -1.275777
 H         0.251687        -1.742559         0.104664
 H         1.896333         1.032675        -1.991351
 H         1.332292         2.246773        -0.639643
 H         4.615935         1.168389        -2.056868
 H         5.137217         0.101040        -0.694176
 H         3.128805        -1.518511         0.102999
 H         1.913947        -0.354683         2.135302
 H         1.093448         1.234810         1.836287
