19
Iteration:   684
 C        -0.084028        -0.709253        -0.224000
 C         1.344501        -0.098432        -0.109256
 C         1.779671         1.242524        -0.772495
 C         3.151568         0.781796        -0.304416
 C         4.176450         0.649680        -1.350501
 O         3.275888        -0.248024        -2.083662
 C         2.653111        -0.663228        -0.664628
 O         3.197769         0.912906         1.121951
 C         1.920936         0.121126         1.419227
 H        -0.895273        -0.452729         0.518249
 H        -0.497329        -0.339668        -1.193338
 H        -0.011935        -1.926289        -0.258158
 H         1.635791         1.176914        -1.843996
 H         1.425464         2.153211        -0.316418
 H         4.433278         1.502606        -2.119080
 H         5.114557         0.194465        -0.986123
 H         3.236991        -1.568691        -0.405709
 H         2.187681        -0.710318         2.040160
 H         1.239732         0.868144         1.852067
