19
Iteration:   930
 C        -0.041275        -0.683004        -0.324908
 C         1.326300        -0.083248        -0.075852
 C         1.748454         1.332222        -0.746350
 C         3.089852         0.901558        -0.390275
 C         4.162425         0.501761        -1.364063
 O         3.384475        -0.526404        -1.927972
 C         2.683920        -0.622660        -0.598862
 O         3.122996         1.052309         1.049577
 C         1.906389         0.171765         1.349775
 H        -0.893082        -0.543995         0.412200
 H        -0.476794        -0.585583        -1.458445
 H         0.253285        -1.825103        -0.273046
 H         1.666487         1.180924        -1.870991
 H         1.442901         2.345852        -0.298792
 H         4.345432         1.193467        -2.082541
 H         5.075887         0.220946        -0.661428
 H         3.170371        -1.394240        -0.063338
 H         2.332831        -0.555197         2.063677
 H         1.203067         0.752727         1.919325
