19
Iteration:    20
 C        -0.010319        -0.734994        -0.219610
 C         1.311822        -0.051077        -0.074496
 C         1.797424         1.537581        -0.248808
 C         3.122302         0.741344        -0.283254
 C         4.041710         0.969725        -1.408408
 O         3.141527         0.008320        -2.194411
 C         2.571796        -0.496401        -0.875803
 O         3.321647         0.504178         1.091881
 C         2.095474        -0.392455         1.212050
 H        -0.489953        -0.993942         0.694132
 H        -0.577575        -0.065349        -0.873312
 H         0.124270        -1.789417        -0.742056
 H         1.402058         2.036739        -1.118417
 H         1.745756         2.095742         0.666037
 H         3.970002         1.919984        -1.860513
 H         5.053517         0.486953        -1.341786
 H         2.937589        -1.547849        -0.542416
 H         2.396830        -1.523012         1.145077
 H         1.615851        -0.276538         2.212322
