19
Iteration:  2345charge 0 multiplicity 1
 C        -0.059571        -0.812929        -0.298996
 C         1.362287        -0.068725        -0.146639
 C         1.816141         1.296899        -0.929535
 C         3.182799         0.894714        -0.331298
 C         4.187183         0.481098        -1.433717
 O         3.413869        -0.701238        -1.788138
 C         2.699405        -0.645918        -0.498749
 O         3.065500         1.118071         1.072288
 C         1.800392         0.460385         1.356881
 H        -0.767965        -0.271134         0.280898
 H        -0.057407        -0.818270        -1.410200
 H        -0.067706        -1.908726         0.092848
 H         1.608969         1.221472        -1.994965
 H         1.395735         2.254466        -0.691961
 H         4.009828         1.202957        -2.296206
 H         5.312957         0.445515        -1.306736
 H         2.932756        -1.535807         0.179198
 H         1.911687        -0.260104         2.245874
 H         0.946190         1.152507         1.574915
