19
Iteration:  1038
 C        -0.077293        -0.692779        -0.253698
 C         1.316366        -0.031014        -0.126846
 C         1.696496         1.319071        -0.894518
 C         3.081626         0.760221        -0.390352
 C         4.202280         0.624609        -1.338543
 O         3.415381        -0.608866        -1.892555
 C         2.770229        -0.642834        -0.550604
 O         3.086467         1.054570         1.037183
 C         1.900740         0.222084         1.372120
 H        -0.000331        -1.750496        -0.217866
 H        -0.725891        -0.351449         0.447012
 H        -0.516135        -0.340985        -1.191967
 H         1.527344         1.202914        -2.006222
 H         1.367328         2.346630        -0.500668
 H         4.476214         1.379604        -2.121161
 H         5.143578         0.259831        -0.881394
 H         3.265782        -1.332990         0.148896
 H         2.121031        -0.735408         1.960256
 H         1.379389         0.897058         2.064468
