19
Iteration:  3294
 C        -0.031492        -0.697588        -0.251993
 C         1.285718        -0.028299        -0.109390
 C         1.768173         1.162965        -0.945093
 C         3.144733         0.796669        -0.410162
 C         4.224480         0.513459        -1.337700
 O         3.467704        -0.692752        -1.761948
 C         2.722366        -0.648902        -0.492702
 O         3.099332         1.177639         0.956336
 C         1.752415         0.430434         1.336142
 H        -0.965895        -0.175278         0.015254
 H        -0.200704        -1.097288        -1.249170
 H        -0.096962        -1.615322         0.306656
 H         1.443815         1.253823        -2.065233
 H         1.509344         2.185777        -0.553889
 H         4.337346         1.322867        -2.152153
 H         5.195319         0.254214        -1.010568
 H         2.940952        -1.537284         0.131316
 H         2.123621        -0.405159         1.994644
 H         1.003324         1.131289         1.833722
