19
Iteration:  3237
 C         0.028023        -0.780134        -0.261829
 C         1.360270        -0.092248        -0.171755
 C         1.785597         1.222081        -0.919857
 C         3.192970         0.769056        -0.382812
 C         4.232185         0.438248        -1.396597
 O         3.295723        -0.590644        -1.817327
 C         2.808383        -0.701805        -0.351834
 O         3.039889         1.166166         1.050002
 C         1.737882         0.541629         1.207519
 H        -0.664170        -0.256016         0.414933
 H        -0.366906        -0.565886        -1.267264
 H         0.132572        -1.776402         0.086223
 H         1.780992         1.014431        -2.027838
 H         1.472793         2.271504        -0.577644
 H         4.309388         1.378796        -2.090966
 H         5.161965        -0.014868        -1.015308
 H         3.121610        -1.564345         0.308920
 H         1.870920        -0.210003         2.060252
 H         0.820842         1.173582         1.541187
