19
Iteration:  4416charge 0 multiplicity 1
 C        -0.018436        -0.688536        -0.146780
 C         1.259382        -0.029709        -0.087875
 C         1.785594         1.299762        -0.962456
 C         3.131399         0.869361        -0.377316
 C         4.275916         0.504138        -1.404224
 O         3.533577        -0.677501        -1.841294
 C         2.774284        -0.729121        -0.587136
 O         2.895525         1.156337         1.060875
 C         1.766271         0.351890         1.279286
 H        -0.796485         0.068385        -0.209085
 H         0.057780        -1.473257        -0.903734
 H        -0.150458        -1.254392         0.837812
 H         1.784924         1.041059        -2.123959
 H         1.251343         2.292138        -0.666752
 H         4.513873         1.246735        -2.234775
 H         5.176519         0.193449        -0.870432
 H         2.981401        -1.611626         0.157209
 H         2.193615        -0.548092         1.740317
 H         1.179972         0.874830         2.024997
