19
Iteration:  4927charge 0 multiplicity 1
 C        -0.011381        -0.717397        -0.331545
 C         1.314676        -0.041805        -0.121239
 C         1.797719         1.177313        -0.885413
 C         3.182427         0.778408        -0.344022
 C         4.205978         0.586999        -1.479613
 O         3.442237        -0.729658        -1.812124
 C         2.721582        -0.594516        -0.511147
 O         3.071880         1.106957         1.075544
 C         1.696618         0.479730         1.397543
 H        -0.836240        -0.133406        -0.169681
 H        -0.141196        -1.363921        -1.211999
 H        -0.085620        -1.525025         0.430810
 H         1.625414         0.880901        -1.907720
 H         1.435139         2.267060        -0.557364
 H         4.184952         1.229098        -2.456166
 H         5.184106         0.328445        -1.167322
 H         3.301335        -1.331879         0.138340
 H         1.840672        -0.342140         2.037438
 H         1.130323         1.348106         1.787519
