19
Iteration:  1807charge 0 multiplicity 1
 C        -0.119282        -0.710708        -0.206101
 C         1.334689        -0.140925        -0.119643
 C         1.907519         1.153111        -1.005967
 C         3.180055         0.766750        -0.312513
 C         4.195506         0.576361        -1.370076
 O         3.417467        -0.578352        -1.903350
 C         2.747947        -0.739662        -0.439386
 O         3.054469         1.133204         1.068537
 C         1.718959         0.512645         1.271036
 H        -0.851337        -0.082626         0.356380
 H        -0.306663        -0.854668        -1.308348
 H        -0.256702        -1.718649         0.317985
 H         1.782164         1.028037        -2.079244
 H         1.598273         2.160162        -0.645659
 H         4.447518         1.418425        -2.211093
 H         5.187708         0.233867        -1.115074
 H         3.186976        -1.516155         0.217421
 H         1.913469        -0.294293         2.072010
 H         0.918602         1.157635         1.773128
