19
Iteration:  4307charge 0 multiplicity 1
 C         0.075969        -0.828973        -0.235388
 C         1.275253         0.059393        -0.217520
 C         1.727933         1.302824        -0.952771
 C         3.127837         0.850016        -0.382561
 C         4.248270         0.482892        -1.338878
 O         3.368515        -0.713776        -1.760109
 C         2.729175        -0.571685        -0.525825
 O         3.087953         1.119545         1.075817
 C         1.767798         0.398762         1.260849
 H        -0.775090        -0.410272         0.308994
 H        -0.192051        -1.040901        -1.263600
 H         0.300089        -1.862499         0.189896
 H         1.590877         1.185984        -2.125691
 H         1.354628         2.348394        -0.782080
 H         4.475916         1.089719        -2.206259
 H         5.113235         0.264402        -0.704151
 H         3.076424        -1.446890         0.206028
 H         1.873802        -0.533601         1.882877
 H         1.204484         1.019078         1.977961
