19
Iteration:  1407
 C        -0.050976        -0.757419        -0.283327
 C         1.315459        -0.118736        -0.097150
 C         1.717383         1.190706        -0.887797
 C         3.188471         0.915005        -0.324016
 C         4.330380         0.410325        -1.373668
 O         3.323345        -0.499406        -1.891352
 C         2.722010        -0.634774        -0.573755
 O         3.036927         1.152710         1.075112
 C         1.845257         0.376775         1.356955
 H        -0.024867        -0.929505        -1.340486
 H        -0.177519        -1.785709         0.173205
 H        -0.705993        -0.018911         0.133789
 H         1.714892         0.892151        -1.951306
 H         1.278119         2.212465        -0.576222
 H         4.606799         1.079311        -2.287466
 H         5.264528         0.011118        -0.956541
 H         3.017271        -1.470439         0.049976
 H         2.016092        -0.614603         1.860162
 H         1.180699         1.018351         1.978870
