19
Iteration:   590
 C        -0.043661        -0.678449        -0.225276
 C         1.389141        -0.204153        -0.054699
 C         1.719803         1.197413        -0.613052
 C         3.158328         0.794125        -0.270091
 C         4.192982         0.619996        -1.343152
 O         3.218757        -0.145167        -2.098192
 C         2.656243        -0.631013        -0.823232
 O         3.160577         0.947064         1.094040
 C         2.020841         0.077939         1.355204
 H        -0.255917        -0.658726        -1.318931
 H        -0.249570        -1.734928        -0.019298
 H        -0.800810        -0.172369         0.287012
 H         1.500530         1.239607        -1.715780
 H         1.328066         2.171982        -0.078954
 H         4.532823         1.413857        -1.919963
 H         4.966427         0.022218        -0.834150
 H         2.904496        -1.654046        -0.464205
 H         2.368426        -0.895109         1.898196
 H         1.266815         0.758063         1.748820
