19
Iteration:   276charge 0 multiplicity 1
 C        -0.079471        -0.626063        -0.197628
 C         1.344109        -0.124328        -0.076654
 C         1.804823         1.264950        -0.532222
 C         3.184766         0.747778        -0.257619
 C         4.113197         0.837353        -1.497335
 O         3.080936        -0.028274        -2.121918
 C         2.790996        -0.596191        -0.794187
 O         3.246139         0.701938         1.180343
 C         1.982163        -0.187946         1.296870
 H        -0.145300        -1.732020         0.025295
 H        -0.764589        -0.160544         0.530468
 H        -0.501963        -0.385805        -1.104197
 H         1.615293         1.367834        -1.583806
 H         1.569055         2.158437        -0.006860
 H         4.396293         1.775196        -2.018478
 H         4.986428         0.287872        -1.265415
 H         3.349652        -1.492580        -0.590048
 H         2.123119        -1.239043         1.630318
 H         1.203874         0.282091         1.978788
