19
Iteration:  4894charge 0 multiplicity 1
 C        -0.030929        -0.712863        -0.264727
 C         1.342005        -0.070382        -0.169564
 C         1.651671         1.173294        -0.924077
 C         3.102556         0.839722        -0.372098
 C         4.294271         0.515037        -1.206010
 O         3.407825        -0.685262        -1.771283
 C         2.659070        -0.630435        -0.590333
 O         3.093652         1.242380         0.945566
 C         1.896925         0.348291         1.282376
 H        -0.762060        -0.028584         0.072106
 H        -0.476154        -0.967483        -1.229019
 H        -0.134205        -1.549225         0.481953
 H         1.536821         1.073991        -1.997481
 H         1.292195         2.197726        -0.448092
 H         4.763185         1.144683        -2.082082
 H         5.118006         0.086561        -0.677168
 H         3.098421        -1.417596         0.126786
 H         2.169638        -0.499648         1.858259
 H         1.138943         0.917982         1.864097
