19
Iteration:   410
 C        -0.036104        -0.679371        -0.174945
 C         1.308935        -0.128802        -0.044925
 C         1.660420         1.346322        -0.587384
 C         3.117569         0.796216        -0.295719
 C         4.103809         0.880847        -1.455384
 O         3.345906        -0.225835        -2.163151
 C         2.645874        -0.524912        -0.781874
 O         3.342689         0.550187         1.135429
 C         1.909583        -0.001519         1.372120
 H        -0.666765         0.183818        -0.143523
 H        -0.178751        -1.107827        -1.154316
 H        -0.193723        -1.350422         0.673679
 H         1.505059         1.271531        -1.665221
 H         1.279796         2.270309        -0.061675
 H         4.178030         1.828388        -2.092082
 H         5.078031         0.518662        -1.151748
 H         3.167280        -1.425011        -0.481335
 H         1.893531        -0.930257         2.065592
 H         1.160668         0.699576         1.893777
