19
Iteration:  1285charge 0 multiplicity 1
 C        -0.122967        -0.800840        -0.302639
 C         1.310203        -0.050795        -0.145985
 C         1.762523         1.264702        -0.901874
 C         3.129891         0.870997        -0.386200
 C         4.267958         0.485485        -1.363639
 O         3.352227        -0.581718        -1.874248
 C         2.743842        -0.617775        -0.511691
 O         3.033150         1.148459         1.078311
 C         1.931150         0.306878         1.370751
 H        -0.286919        -0.699697        -1.391048
 H         0.003158        -1.931030        -0.035816
 H        -0.828028        -0.217756         0.304022
 H         1.613028         1.153406        -2.002734
 H         1.489684         2.360499        -0.492506
 H         4.542313         1.184125        -2.209852
 H         5.093203        -0.023812        -0.716426
 H         3.204477        -1.397984         0.111344
 H         2.216064        -0.605486         1.922720
 H         1.265335         1.031212         1.969304
