19
Iteration:  4883charge 0 multiplicity 1
 C        -0.056320        -0.697863        -0.200007
 C         1.251123        -0.069951        -0.170928
 C         1.721794         1.185383        -0.925325
 C         3.103272         0.823660        -0.414825
 C         4.314661         0.408298        -1.271417
 O         3.476614        -0.615752        -1.884263
 C         2.726492        -0.660482        -0.529480
 O         3.012491         1.260531         0.995930
 C         1.838620         0.366137         1.335426
 H        -0.619451         0.005482         0.307876
 H        -0.409236        -0.977413        -1.188131
 H         0.023742        -1.655345         0.419153
 H         1.690209         1.056837        -2.015632
 H         1.238893         2.244148        -0.674564
 H         4.718709         1.213885        -2.036664
 H         5.019223        -0.009682        -0.586189
 H         3.072315        -1.536605         0.138099
 H         2.289299        -0.447527         1.851945
 H         1.107289         0.953932         1.938533
