19
Iteration:  2543charge 0 multiplicity 1
 C        -0.006841        -0.749985        -0.118815
 C         1.302209        -0.021601        -0.143255
 C         1.750778         1.279440        -0.985996
 C         3.086536         0.875767        -0.362561
 C         4.236633         0.481282        -1.234163
 O         3.507399        -0.678881        -1.866699
 C         2.695493        -0.662206        -0.576333
 O         3.017532         1.168615         0.997247
 C         1.811460         0.378560         1.263143
 H        -0.648837         0.078443         0.070602
 H        -0.397437        -0.966507        -1.177368
 H         0.022122        -1.708790         0.547193
 H         1.823519         1.129677        -2.081088
 H         1.308181         2.206353        -0.653155
 H         4.555805         1.128100        -2.025850
 H         5.159457        -0.043962        -0.849112
 H         2.936395        -1.546001         0.041782
 H         2.156991        -0.523477         1.982164
 H         0.924608         0.861023         1.778193
