19
Iteration:    49
 C        -0.058730        -0.725875        -0.243642
 C         1.310957        -0.146972        -0.119239
 C         1.653143         1.375910        -0.323273
 C         3.165560         0.794709        -0.222060
 C         4.101603         0.887629        -1.509184
 O         3.155471         0.096393        -2.271933
 C         2.601342        -0.419842        -0.855970
 O         3.422071         0.421299         1.211738
 C         2.065395        -0.284409         1.341449
 H        -0.382099        -1.408948         0.618743
 H        -0.738063         0.133564        -0.017139
 H        -0.349313        -1.113944        -1.226003
 H         1.377783         1.818855        -1.332984
 H         1.238930         2.101116         0.455849
 H         4.285265         1.926610        -2.006516
 H         5.126225         0.454683        -1.485295
 H         3.106419        -1.363463        -0.696897
 H         2.241423        -1.324026         1.455241
 H         1.540018         0.139498         2.202350
