19
Iteration:   372
 C        -0.009039        -0.662669        -0.266130
 C         1.391089        -0.209346        -0.136735
 C         1.824695         1.309606        -0.543181
 C         3.202947         0.712898        -0.232224
 C         4.145533         0.779762        -1.432224
 O         3.071584        -0.098787        -2.104230
 C         2.624693        -0.623268        -0.797882
 O         3.162026         0.915556         1.182415
 C         2.044789        -0.185281         1.335633
 H        -0.496134         0.082373        -0.990841
 H        -0.276562        -1.676608        -0.647265
 H        -0.644166        -0.553607         0.648582
 H         1.586046         1.462882        -1.607850
 H         1.632141         2.171805         0.052217
 H         4.378219         1.669511        -2.026984
 H         5.135412         0.122654        -1.346750
 H         3.020743        -1.614846        -0.474255
 H         2.488259        -1.063516         1.730977
 H         1.489078         0.299172         2.111041
