19
Iteration:   238charge 0 multiplicity 1
 C        -0.105137        -0.648714        -0.234230
 C         1.306390        -0.032164        -0.020873
 C         1.724346         1.379420        -0.362393
 C         3.070002         0.786727        -0.293407
 C         4.110386         0.862855        -1.420014
 O         3.275881        -0.164276        -2.176084
 C         2.583048        -0.543801        -0.874250
 O         3.331963         0.658565         1.116508
 C         2.057818        -0.221512         1.294915
 H        -0.520161        -1.204993         0.576201
 H        -0.870584        -0.001337        -0.726796
 H         0.316432        -1.555224        -0.866058
 H         1.411303         1.606829        -1.390935
 H         1.361431         2.197899         0.321714
 H         4.248064         1.711589        -2.100395
 H         5.132770         0.323529        -1.089104
 H         2.986877        -1.576881        -0.644595
 H         2.472284        -1.195821         1.513987
 H         1.528410         0.218472         2.105313
