19
Iteration:  3489charge 0 multiplicity 1
 C        -0.052717        -0.726831        -0.113141
 C         1.293177        -0.027160        -0.258680
 C         1.751242         1.279272        -0.994832
 C         3.136898         0.840710        -0.335482
 C         4.256459         0.591147        -1.375254
 O         3.500726        -0.712777        -1.765117
 C         2.757383        -0.640746        -0.484689
 O         3.120811         1.017567         1.029689
 C         1.658435         0.429587         1.205011
 H        -0.875074         0.036719         0.198378
 H        -0.392950        -1.433440        -0.912518
 H        -0.129025        -1.491949         0.725819
 H         1.875426         1.374385        -2.118861
 H         1.167924         2.097798        -0.670181
 H         4.282344         1.257570        -2.276574
 H         5.154093         0.210570        -0.957013
 H         3.031530        -1.530289         0.180917
 H         1.888985        -0.250905         1.975419
 H         1.202489         1.317259         1.732907
