19
Iteration:  4350charge 0 multiplicity 1
 C         0.021188        -0.763671        -0.327795
 C         1.353742        -0.039957        -0.014540
 C         1.762920         1.145113        -0.883337
 C         3.176279         0.803324        -0.337429
 C         4.330877         0.514830        -1.396653
 O         3.373403        -0.637081        -1.932679
 C         2.709170        -0.672736        -0.442424
 O         3.010232         1.192742         1.028122
 C         1.710116         0.517735         1.371339
 H        -0.792891        -0.303037         0.200918
 H        -0.166824        -0.863209        -1.375567
 H        -0.060295        -1.856527        -0.030791
 H         1.732237         0.739939        -2.007797
 H         1.223636         2.115346        -0.667256
 H         4.544470         1.305382        -2.148523
 H         5.203728        -0.019174        -1.165723
 H         3.280775        -1.588116        -0.045154
 H         1.917705        -0.243513         2.151125
 H         0.960624         1.194282         1.764367
