19
Iteration:  2398
 C        -0.121904        -0.726727        -0.159630
 C         1.309165        -0.111778        -0.133023
 C         1.743633         1.126460        -0.970842
 C         3.143984         0.727026        -0.321826
 C         4.267108         0.499011        -1.329336
 O         3.456758        -0.519999        -1.865068
 C         2.725163        -0.687467        -0.630995
 O         3.050546         1.203562         1.009834
 C         1.814395         0.430226         1.348337
 H        -0.649627         0.257258        -0.392685
 H        -0.431709        -1.293528        -1.045117
 H        -0.212029        -1.192551         0.849998
 H         1.731304         0.862533        -2.019297
 H         1.307090         2.111479        -0.633530
 H         4.723468         1.218948        -1.867471
 H         5.173867         0.057373        -0.834045
 H         3.202684        -1.296683         0.141207
 H         2.170181        -0.493005         2.023444
 H         1.042522         1.173164         1.653901
