19
Iteration:  1585charge 0 multiplicity 1
 C        -0.138213        -0.793955        -0.297336
 C         1.329834        -0.077368        -0.120996
 C         1.777245         1.259023        -0.861903
 C         3.203261         0.803733        -0.332939
 C         4.237388         0.607171        -1.429626
 O         3.380050        -0.563681        -1.840560
 C         2.741250        -0.725769        -0.474158
 O         3.131229         1.053325         1.067668
 C         1.818544         0.442297         1.320549
 H        -0.106581        -1.752944        -0.901976
 H        -0.638823        -0.968127         0.654460
 H        -0.835064        -0.064475        -0.810729
 H         1.599017         1.245026        -1.963058
 H         1.347369         2.176252        -0.422445
 H         4.208421         1.485756        -2.254141
 H         5.211001         0.222523        -1.321528
 H         3.161437        -1.550494         0.051439
 H         1.892650        -0.541936         1.855109
 H         1.109409         1.152665         1.671440
