19
Iteration:  2007
 C         0.021790        -0.784316        -0.272135
 C         1.387219        -0.115832        -0.128062
 C         1.842600         1.191369        -0.928040
 C         3.194798         0.811474        -0.251410
 C         4.185605         0.481141        -1.401671
 O         3.273623        -0.535676        -1.876836
 C         2.796995        -0.749425        -0.491779
 O         3.077677         1.148841         1.069767
 C         1.712891         0.503320         1.281048
 H        -0.687188        -0.126836        -0.647924
 H        -0.119719        -1.503124        -1.122717
 H        -0.396105        -1.315698         0.610633
 H         1.723795         1.139476        -1.990031
 H         1.561488         2.153951        -0.501664
 H         4.188911         1.372871        -2.096361
 H         5.008644         0.137011        -0.880511
 H         3.311583        -1.522292         0.030044
 H         1.704529        -0.214947         2.151926
 H         1.135724         1.437045         1.495705
