19
Iteration:  1698
 C        -0.083412        -0.762867        -0.271626
 C         1.378475        -0.092517        -0.081433
 C         1.757284         1.205435        -0.914348
 C         3.175723         0.715472        -0.308359
 C         4.237064         0.560554        -1.455149
 O         3.335032        -0.530202        -1.805321
 C         2.806955        -0.676719        -0.418171
 O         3.109538         1.081962         1.039303
 C         1.732455         0.445812         1.224613
 H        -0.408276        -0.125983        -1.118538
 H        -0.014974        -1.851333        -0.512052
 H        -0.992600        -0.546670         0.473260
 H         1.861513         1.148904        -1.954683
 H         1.517216         2.154107        -0.586790
 H         4.325339         1.284749        -2.319165
 H         5.213806         0.247823        -1.060822
 H         3.108511        -1.450230         0.327896
 H         1.880864        -0.317188         1.993186
 H         1.096466         1.303542         1.541578
