19
Iteration:  3180
 C        -0.104214        -0.677514        -0.120817
 C         1.253887        -0.041649        -0.183523
 C         1.656381         1.187382        -0.920447
 C         3.066821         0.814315        -0.431908
 C         4.285727         0.560227        -1.324029
 O         3.529602        -0.676685        -1.741267
 C         2.767758        -0.646944        -0.566315
 O         3.133979         1.097390         0.950470
 C         1.767531         0.392373         1.249024
 H        -0.800991         0.126521        -0.203796
 H        -0.061023        -1.368490        -0.983263
 H        -0.317150        -1.390145         0.686369
 H         1.720616         1.207898        -1.971488
 H         1.168558         2.136370        -0.549301
 H         4.610553         1.259912        -2.108721
 H         5.248389         0.301399        -0.719028
 H         3.138598        -1.345468         0.221873
 H         1.986714        -0.461366         1.960634
 H         1.118944         1.161353         1.720223
