19
Iteration:  3565
 C         0.036653        -0.790239        -0.331598
 C         1.343566        -0.037352        -0.180470
 C         1.652425         1.274747        -0.881706
 C         3.171860         0.836812        -0.351624
 C         4.196648         0.489589        -1.368218
 O         3.388848        -0.711478        -1.759268
 C         2.754762        -0.653278        -0.462055
 O         3.135921         1.143586         1.001621
 C         1.749918         0.488869         1.306018
 H        -0.927120        -0.142910        -0.189480
 H        -0.069425        -1.046740        -1.433216
 H        -0.111922        -1.764565         0.239830
 H         1.631626         1.197853        -1.977490
 H         1.318020         2.195998        -0.454257
 H         4.244329         1.184597        -2.196904
 H         5.150646         0.174835        -0.919767
 H         2.976558        -1.539162         0.199802
 H         1.959786        -0.350972         1.962383
 H         1.318602         1.288297         1.958450
