19
Iteration:  4813
 C        -0.031976        -0.780820        -0.335406
 C         1.323180        -0.004469        -0.093305
 C         1.730379         1.242881        -0.849162
 C         3.145988         0.823118        -0.354087
 C         4.269743         0.565560        -1.480200
 O         3.438115        -0.723657        -1.774418
 C         2.705471        -0.611145        -0.454356
 O         3.115616         1.033735         1.003085
 C         1.703859         0.543531         1.362781
 H        -0.925090        -0.191150         0.025843
 H        -0.067843        -1.172283        -1.358381
 H         0.084441        -1.706881         0.201812
 H         1.622428         0.910302        -1.963327
 H         1.324947         2.248166        -0.707773
 H         4.348663         1.120506        -2.363498
 H         5.248231         0.188753        -1.080096
 H         3.168173        -1.341328         0.198748
 H         1.890245        -0.308511         2.107859
 H         1.042485         1.366829         1.559938
