19
Iteration:  1354
 C        -0.073826        -0.757170        -0.167263
 C         1.267492        -0.026288        -0.093765
 C         1.722006         1.251717        -0.916096
 C         3.217480         0.771015        -0.301537
 C         4.287443         0.641586        -1.489806
 O         3.436340        -0.592248        -1.863465
 C         2.751889        -0.600886        -0.572079
 O         3.114940         0.981867         1.148228
 C         1.751797         0.356526         1.244833
 H         0.013283        -1.564541        -0.968300
 H        -0.331755        -1.301167         0.862007
 H        -0.972109        -0.060670        -0.475550
 H         1.572834         1.203527        -1.970475
 H         1.527353         2.230233        -0.558624
 H         4.212665         1.501841        -2.317888
 H         5.192149         0.233974        -1.169209
 H         2.915937        -1.509674         0.007490
 H         1.620268        -0.366954         2.032542
 H         1.099841         1.179176         1.384693
