19
Iteration:  4232
 C        -0.053115        -0.647829        -0.239483
 C         1.362899        -0.032795        -0.115266
 C         1.769362         1.149077        -0.972645
 C         3.164367         0.792156        -0.423187
 C         4.265330         0.581394        -1.450259
 O         3.445006        -0.659322        -1.813604
 C         2.804745        -0.657762        -0.534858
 O         2.942024         1.152042         1.113346
 C         1.757990         0.360556         1.368380
 H        -0.783415         0.216942        -0.205538
 H        -0.265929        -1.354660        -1.047112
 H        -0.395476        -1.328835         0.611613
 H         1.699589         1.008917        -2.113487
 H         1.485333         2.124632        -0.619511
 H         4.440784         1.338258        -2.219963
 H         5.251996         0.081598        -1.014813
 H         3.186131        -1.405890         0.214653
 H         2.145628        -0.610300         1.889115
 H         0.937797         0.931250         1.947230
