19
Iteration:  4429charge 0 multiplicity 1
 C        -0.027112        -0.732361        -0.182013
 C         1.337779         0.016888        -0.145673
 C         1.699237         1.203240        -0.942068
 C         3.147301         0.792232        -0.372837
 C         4.340730         0.526509        -1.283277
 O         3.411529        -0.698389        -1.887351
 C         2.744139        -0.578501        -0.533943
 O         2.953433         1.250251         0.995760
 C         1.840360         0.287129         1.337647
 H        -0.931307        -0.097873        -0.399935
 H        -0.119022        -1.390528        -1.080092
 H        -0.247032        -1.299301         0.728763
 H         1.627843         1.041259        -2.025577
 H         1.430121         2.303660        -0.710271
 H         4.682716         1.132507        -2.053896
 H         5.191070         0.073454        -0.692313
 H         3.130043        -1.507975         0.037293
 H         2.143178        -0.640922         1.849768
 H         1.015773         0.802320         1.904281
