19
Iteration:  1539
 C         0.011476        -0.750468        -0.220180
 C         1.261488        -0.029091        -0.091451
 C         1.772005         1.224895        -0.939153
 C         3.181856         0.734897        -0.367822
 C         4.251282         0.567823        -1.432059
 O         3.399559        -0.544471        -1.876704
 C         2.692138        -0.631951        -0.478623
 O         3.065693         1.057703         1.070412
 C         1.792060         0.365212         1.333670
 H         0.073011        -1.423774        -1.044206
 H        -0.422308        -1.285942         0.665056
 H        -0.724213        -0.107417        -0.543922
 H         1.646137         1.265377        -2.069572
 H         1.529902         2.300458        -0.493628
 H         4.396485         1.393229        -2.247469
 H         5.136731         0.323502        -0.931387
 H         3.001379        -1.537674         0.022226
 H         2.043815        -0.571964         1.944536
 H         1.081957         1.076979         1.777686
