19
Iteration:   371
 C         0.007384        -0.658338        -0.269666
 C         1.391668        -0.196068        -0.130410
 C         1.823719         1.304626        -0.540213
 C         3.207832         0.721970        -0.238567
 C         4.137622         0.769494        -1.434498
 O         3.071832        -0.100139        -2.108138
 C         2.625398        -0.619421        -0.799054
 O         3.158003         0.914671         1.187118
 C         2.037245        -0.188908         1.330479
 H        -0.490617         0.033150        -1.014267
 H        -0.257274        -1.680189        -0.625007
 H        -0.651326        -0.529921         0.673806
 H         1.622868         1.452091        -1.637937
 H         1.595717         2.207819         0.100766
 H         4.360178         1.634506        -2.007567
 H         5.109902         0.130813        -1.353491
 H         3.028676        -1.621586        -0.468700
 H         2.486203        -1.078601         1.747780
 H         1.495219         0.248386         2.130327
