19
Iteration:  1307
 C        -0.042798        -0.661712        -0.289647
 C         1.344137        -0.083552        -0.080856
 C         1.718822         1.155986        -0.811414
 C         3.170215         0.751486        -0.322056
 C         4.290690         0.573430        -1.373351
 O         3.385529        -0.530046        -1.894574
 C         2.716465        -0.730896        -0.540332
 O         3.091789         1.186445         1.008909
 C         1.780703         0.321557         1.312844
 H        -0.107258        -1.016291        -1.332370
 H        -0.202294        -1.528853         0.441102
 H        -0.751031         0.157388        -0.111250
 H         1.560696         0.924990        -1.886164
 H         1.104429         2.113557        -0.505826
 H         4.221429         1.398865        -2.093930
 H         5.318392         0.158221        -1.034705
 H         3.051395        -1.611372         0.013849
 H         2.223130        -0.490965         1.908883
 H         0.962677         0.901887         1.857577
