19
Iteration:  4999
 C        -0.007390        -0.752994        -0.233175
 C         1.255075         0.067734        -0.139694
 C         1.678030         1.208288        -0.938581
 C         3.087727         0.856985        -0.429639
 C         4.282423         0.399126        -1.289442
 O         3.520244        -0.635297        -1.873761
 C         2.671812        -0.612234        -0.540975
 O         3.052434         1.155446         0.970436
 C         1.836978         0.408902         1.400129
 H        -0.986569        -0.289827         0.243718
 H        -0.251696        -1.197306        -1.206605
 H         0.083059        -1.705425         0.367052
 H         1.518932         1.158238        -2.030774
 H         1.273631         2.099988        -0.531773
 H         4.665283         1.083436        -2.014597
 H         5.110922        -0.052540        -0.540617
 H         3.091941        -1.399527         0.065691
 H         2.362132        -0.435720         1.990498
 H         1.068631         0.935702         1.988092
