19
Iteration:  1880
 C        -0.046304        -0.846200        -0.291025
 C         1.300755        -0.010535        -0.192206
 C         1.745501         1.207477        -0.963166
 C         3.164834         0.796939        -0.327594
 C         4.280499         0.460971        -1.367823
 O         3.380108        -0.623211        -1.786933
 C         2.688911        -0.614574        -0.443126
 O         3.134915         1.167890         1.080228
 C         1.796389         0.495473         1.252973
 H        -0.584114        -0.857232         0.681893
 H        -0.569589        -0.426579        -1.083280
 H         0.024682        -1.863736        -0.539874
 H         1.640745         1.183891        -2.069007
 H         1.335916         2.150086        -0.388542
 H         4.443481         1.131251        -2.178966
 H         5.299249         0.222954        -0.978356
 H         2.828518        -1.546985         0.161901
 H         1.784058        -0.396252         1.877560
 H         1.147905         1.238087         1.639955
