19
Iteration:  4566charge 0 multiplicity 1
 C        -0.145947        -0.709700        -0.175707
 C         1.369211        -0.132613        -0.117825
 C         1.738096         1.143922        -0.967306
 C         3.144043         0.814761        -0.355914
 C         4.262111         0.469516        -1.301275
 O         3.476135        -0.494015        -1.840855
 C         2.692228        -0.732856        -0.521090
 O         3.052153         1.196324         0.978752
 C         1.850639         0.432908         1.268512
 H        -0.846522         0.105832         0.042230
 H        -0.326127        -1.078286        -1.192275
 H        -0.192756        -1.454667         0.702465
 H         1.761004         1.021608        -2.084896
 H         1.298164         2.007958        -0.686481
 H         4.755456         1.174298        -2.052512
 H         5.009002         0.049304        -0.688220
 H         3.061535        -1.647513        -0.145303
 H         1.900080        -0.395253         2.068434
 H         0.961184         0.976360         1.703722
