19
Iteration:  1507
 C        -0.008008        -0.747510        -0.230042
 C         1.330429        -0.108771        -0.179936
 C         1.667826         1.196426        -0.932170
 C         3.178922         0.785438        -0.319899
 C         4.279501         0.481398        -1.271484
 O         3.316659        -0.532094        -1.900478
 C         2.728826        -0.677773        -0.521978
 O         3.064131         1.205980         1.065734
 C         1.884390         0.371930         1.275259
 H        -0.268300        -0.798559        -1.271595
 H        -0.112506        -1.667267         0.358383
 H        -0.622090         0.049535         0.125399
 H         1.643810         1.412051        -2.005176
 H         1.241561         2.096723        -0.444942
 H         4.680015         1.214457        -2.112043
 H         5.084609         0.033269        -0.747546
 H         3.095286        -1.596767        -0.162300
 H         2.102779        -0.575524         1.843493
 H         1.071831         0.861766         1.764128
