19
Iteration:  1866charge 0 multiplicity 1
 C        -0.038555        -0.826859        -0.331660
 C         1.268424        -0.056750        -0.125082
 C         1.757035         1.343602        -0.867100
 C         3.166197         0.878159        -0.385994
 C         4.246490         0.479311        -1.351796
 O         3.421430        -0.731161        -1.778545
 C         2.687679        -0.621512        -0.524568
 O         3.102356         1.147255         0.993021
 C         1.777508         0.462996         1.339813
 H        -0.682054        -0.844633         0.588549
 H        -0.793457        -0.506240        -1.137212
 H         0.337460        -1.863872        -0.605424
 H         1.692054         1.191267        -1.927241
 H         1.406033         2.286746        -0.650672
 H         4.525851         1.040037        -2.171850
 H         5.100267        -0.056704        -0.774424
 H         3.224178        -1.262265         0.232416
 H         2.144682        -0.281296         2.027974
 H         1.040905         1.154976         1.772508
