19
Iteration:  1346charge 0 multiplicity 1
 C        -0.090845        -0.719660        -0.165808
 C         1.297586        -0.065464        -0.171914
 C         1.721581         1.211708        -0.862592
 C         3.225053         0.797251        -0.296618
 C         4.269402         0.639577        -1.488052
 O         3.422152        -0.556103        -1.872750
 C         2.784693        -0.624360        -0.483249
 O         3.141620         0.954308         1.103314
 C         1.684923         0.375579         1.250430
 H        -0.192626        -1.507322        -0.945079
 H        -0.327239        -1.192472         0.754421
 H        -0.958043        -0.071322        -0.459086
 H         1.612875         1.010940        -1.933995
 H         1.486251         2.216460        -0.685134
 H         4.138434         1.427182        -2.232893
 H         5.314614         0.378983        -1.344644
 H         3.258425        -1.492395         0.042732
 H         1.479396        -0.396984         2.005231
 H         1.220040         1.296981         1.557125
