19
Iteration:  3149
 C        -0.069072        -0.668112        -0.156045
 C         1.303814        -0.022931        -0.170729
 C         1.804068         1.119345        -0.913799
 C         3.139590         0.734962        -0.321976
 C         4.222415         0.593955        -1.493989
 O         3.506731        -0.681593        -1.803232
 C         2.829406        -0.692343        -0.552860
 O         3.011047         1.108819         1.088946
 C         1.710863         0.480222         1.302380
 H        -0.930826        -0.053950        -0.366428
 H        -0.132006        -1.371896        -1.004723
 H        -0.276837        -1.237912         0.718982
 H         1.849546         1.158759        -1.989882
 H         1.373921         2.157012        -0.663343
 H         4.046665         1.429025        -2.223616
 H         5.220809         0.434365        -1.330218
 H         3.269287        -1.506817         0.046974
 H         1.780921        -0.274296         2.140872
 H         0.980542         1.303664         1.617705
