19
Iteration:  4704
 C         0.002319        -0.731728        -0.106845
 C         1.331634        -0.056826        -0.255527
 C         1.719346         1.275232        -0.977384
 C         3.148941         0.774873        -0.317749
 C         4.264275         0.619157        -1.291458
 O         3.457526        -0.732949        -1.786042
 C         2.680639        -0.672515        -0.521445
 O         3.079121         1.071798         1.000561
 C         1.766017         0.466327         1.194429
 H        -0.728982        -0.147984         0.491023
 H        -0.584014        -0.968807        -1.018298
 H         0.097767        -1.608842         0.485607
 H         1.784676         1.172394        -2.172306
 H         1.388677         2.302764        -0.617317
 H         4.213799         1.367659        -2.088162
 H         5.372095         0.385764        -1.000165
 H         3.007967        -1.549862         0.147360
 H         1.510892        -0.308985         1.916932
 H         1.152221         1.254476         1.561886
