19
Iteration:   137
 C         0.048736        -0.679128        -0.242870
 C         1.377582        -0.067840        -0.115370
 C         1.575138         1.495186        -0.356164
 C         3.074028         0.839828        -0.238688
 C         4.053420         0.830917        -1.409598
 O         3.143343        -0.085499        -2.184262
 C         2.608159        -0.506433        -0.830387
 O         3.388989         0.486959         1.127724
 C         2.092414        -0.281750         1.256901
 H        -0.164665        -0.581372        -1.349608
 H         0.080561        -1.734430         0.124548
 H        -0.741295        -0.004176         0.272387
 H         1.284734         1.883415        -1.381719
 H         1.286361         2.257425         0.485021
 H         4.347421         1.861799        -1.885398
 H         5.095129         0.372364        -1.215454
 H         3.192552        -1.403767        -0.651346
 H         2.325217        -1.312009         1.430909
 H         1.574899         0.086719         2.130675
