19
Iteration:  1534
 C        -0.044952        -0.773686        -0.246531
 C         1.259014        -0.043967        -0.098697
 C         1.815378         1.195364        -0.910066
 C         3.158275         0.767628        -0.373193
 C         4.252720         0.541412        -1.389507
 O         3.383992        -0.519974        -1.881622
 C         2.670199        -0.646153        -0.523513
 O         3.088615         1.130709         1.066990
 C         1.824544         0.338896         1.360079
 H        -0.025510        -1.445646        -1.148976
 H        -0.182568        -1.266431         0.738547
 H        -0.910985        -0.036463        -0.515737
 H         1.718987         1.253429        -1.974890
 H         1.586849         2.229321        -0.618688
 H         4.318664         1.210659        -2.189575
 H         5.273075         0.244011        -0.900081
 H         3.180066        -1.540976        -0.012269
 H         1.995837        -0.564850         1.921268
 H         1.014986         1.015337         1.742990
