19
Iteration:  3475charge 0 multiplicity 1
 C        -0.022191        -0.727739        -0.129022
 C         1.279588        -0.017921        -0.232779
 C         1.655346         1.241728        -0.989677
 C         3.121093         0.812616        -0.416347
 C         4.289950         0.480359        -1.393094
 O         3.540301        -0.627586        -1.752923
 C         2.666375        -0.603174        -0.483056
 O         3.156822         1.005214         1.057743
 C         1.707738         0.462989         1.245203
 H        -0.831981        -0.067419         0.296218
 H        -0.435066        -1.060658        -1.140792
 H         0.297498        -1.538009         0.608929
 H         1.519875         0.996726        -2.096419
 H         1.391674         2.206015        -0.559305
 H         4.457546         1.107839        -2.184805
 H         5.260235         0.350205        -0.818510
 H         3.151591        -1.213131         0.279407
 H         1.480240        -0.415017         1.895216
 H         0.941414         1.222275         1.456451
