19
Iteration:  1632
 C        -0.092968        -0.734598        -0.171857
 C         1.315790        -0.119990        -0.238035
 C         1.693603         1.241941        -0.932539
 C         3.170254         0.839339        -0.307838
 C         4.306449         0.471169        -1.313592
 O         3.338985        -0.531167        -1.847077
 C         2.769129        -0.620359        -0.577683
 O         3.066570         1.151020         1.051232
 C         1.846861         0.315601         1.295879
 H        -0.127822        -1.475647        -1.017875
 H        -0.219195        -1.224847         0.843480
 H        -0.863475         0.158210        -0.351825
 H         1.680285         1.246618        -1.989257
 H         1.309965         2.155036        -0.574824
 H         4.627275         1.059906        -2.223915
 H         5.179611        -0.088998        -0.764207
 H         3.282151        -1.443718         0.002367
 H         2.209610        -0.556641         1.841068
 H         1.074246         0.961571         1.744854
