19
Iteration:   676
 C        -0.097610        -0.718121        -0.231699
 C         1.347194        -0.109001        -0.047953
 C         1.802839         1.244197        -0.683512
 C         3.135922         0.795368        -0.335255
 C         4.186134         0.690704        -1.448616
 O         3.342866        -0.287528        -2.051347
 C         2.618376        -0.633941        -0.693839
 O         3.206904         0.851335         1.113439
 C         1.867648         0.180753         1.398485
 H        -0.865509        -0.326892         0.428852
 H        -0.311569        -0.650535        -1.282833
 H         0.114464        -1.886292        -0.103074
 H         1.635057         1.267251        -1.790873
 H         1.449529         2.234724        -0.194792
 H         4.242922         1.576821        -2.172926
 H         5.241384         0.297027        -1.089242
 H         2.997363        -1.592774        -0.338102
 H         1.979550        -0.757190         2.015137
 H         1.151200         0.841510         1.870478
