19
Iteration:  3211
 C        -0.013760        -0.754668        -0.164813
 C         1.272725        -0.080634        -0.128973
 C         1.774440         1.182092        -1.013275
 C         3.149629         0.762276        -0.386656
 C         4.317358         0.446179        -1.342023
 O         3.438871        -0.592794        -1.894519
 C         2.644418        -0.681204        -0.499292
 O         3.001804         1.317343         1.012269
 C         1.802430         0.392178         1.373077
 H        -0.712437         0.045066         0.148051
 H        -0.070547        -0.766821        -1.292376
 H        -0.165073        -1.709881         0.431322
 H         2.025010         0.984899        -2.007827
 H         1.360071         2.093274        -0.700922
 H         4.618752         1.160753        -2.080130
 H         5.175862        -0.106279        -0.704713
 H         2.920775        -1.486866         0.175850
 H         2.093278        -0.489815         1.958498
 H         1.086824         0.917267         1.956136
