19
Iteration:  1557
 C         0.012741        -0.729541        -0.263709
 C         1.378875        -0.019314        -0.148282
 C         1.709960         1.273543        -0.833408
 C         3.139968         0.843885        -0.313288
 C         4.179751         0.598421        -1.406504
 O         3.409713        -0.648594        -1.846938
 C         2.740533        -0.667256        -0.580256
 O         3.122950         0.957459         1.094097
 C         1.748751         0.432481         1.309173
 H         0.108315        -1.621143        -0.899921
 H        -0.134466        -0.962119         0.799586
 H        -0.776183        -0.067285        -0.754423
 H         1.614932         1.145920        -1.908422
 H         1.158995         2.209261        -0.642803
 H         4.052903         1.302123        -2.149819
 H         5.278622         0.247872        -1.360413
 H         3.317822        -1.393362         0.092212
 H         1.675467        -0.432505         1.940942
 H         1.012829         1.258223         1.598384
