19
Iteration:  2383charge 0 multiplicity 1
 C        -0.060548        -0.660717        -0.117325
 C         1.357485        -0.089203        -0.162839
 C         1.750364         1.178728        -0.979915
 C         3.113425         0.810660        -0.357943
 C         4.265255         0.584026        -1.331261
 O         3.465865        -0.625465        -1.851477
 C         2.746355        -0.690067        -0.493935
 O         3.059040         1.078468         1.021986
 C         1.769967         0.418878         1.244300
 H        -0.925958         0.086430        -0.186351
 H        -0.253062        -1.310529        -0.981866
 H        -0.250455        -1.308917         0.714125
 H         1.674198         0.979863        -2.082506
 H         1.326690         2.211414        -0.553281
 H         4.266066         1.342385        -2.194020
 H         5.246654         0.347877        -0.876035
 H         3.041042        -1.612350         0.011638
 H         1.880031        -0.319095         2.003005
 H         1.049139         1.125828         1.632195
