19
Iteration:  1390
 C        -0.000961        -0.774338        -0.274857
 C         1.337701        -0.029356        -0.145407
 C         1.724316         1.250610        -0.905826
 C         3.131330         0.763777        -0.353501
 C         4.242356         0.504618        -1.260390
 O         3.300265        -0.522270        -1.875033
 C         2.690951        -0.640717        -0.521339
 O         3.106919         1.167802         1.021173
 C         1.886030         0.304145         1.266521
 H        -0.064369        -1.366502        -1.243466
 H        -0.105667        -1.467190         0.577351
 H        -0.902067        -0.062623        -0.248160
 H         1.545633         1.349049        -1.968140
 H         1.356204         2.130221        -0.429798
 H         4.755162         1.206589        -1.900399
 H         5.001015        -0.086373        -0.723106
 H         3.111392        -1.538448         0.024764
 H         2.273759        -0.464137         1.928282
 H         1.124729         0.854466         1.807289
