19
Iteration:  1873charge 0 multiplicity 1
 C        -0.073799        -0.861744        -0.327371
 C         1.311298        -0.025739        -0.153568
 C         1.753066         1.254936        -0.902457
 C         3.163422         0.856709        -0.388132
 C         4.301843         0.443524        -1.353720
 O         3.388408        -0.687026        -1.778907
 C         2.656112        -0.595195        -0.459849
 O         3.138816         1.150554         1.055024
 C         1.774723         0.499688         1.268147
 H        -0.610275        -0.827488         0.610494
 H        -0.775814        -0.421225        -1.088530
 H         0.217861        -1.931186        -0.527461
 H         1.706389         1.269886        -2.008478
 H         1.300927         2.218703        -0.525009
 H         4.459622         1.265525        -2.233143
 H         5.235341         0.244640        -0.854716
 H         3.049875        -1.494353         0.030070
 H         2.114174        -0.302767         1.997011
 H         0.982438         1.117274         1.816770
