19
Iteration:  2634
 C         0.021960        -0.798910        -0.374172
 C         1.300923        -0.014367        -0.096074
 C         1.796515         1.213767        -0.890634
 C         3.131714         0.869807        -0.366613
 C         4.211932         0.484948        -1.397183
 O         3.319771        -0.648479        -1.774800
 C         2.685585        -0.656411        -0.458286
 O         3.083254         1.205254         1.013124
 C         1.818906         0.361992         1.329299
 H        -0.893122        -0.111354        -0.344182
 H        -0.141218        -1.093273        -1.410581
 H        -0.032797        -1.716099         0.289727
 H         1.769800         1.091538        -1.948191
 H         1.614912         2.188444        -0.546877
 H         4.614526         1.270721        -2.180733
 H         5.044643         0.039640        -0.883169
 H         3.230595        -1.339809         0.221521
 H         2.366724        -0.448661         2.030236
 H         1.114269         1.104595         1.835011
