19
Iteration:  2695
 C        -0.112952        -0.749955        -0.133197
 C         1.343667        -0.090997        -0.194910
 C         1.814543         1.166256        -1.006658
 C         3.190631         0.787161        -0.264703
 C         4.233467         0.522415        -1.337442
 O         3.448460        -0.572947        -1.887198
 C         2.761056        -0.753371        -0.586779
 O         3.038653         1.148384         1.099802
 C         1.705963         0.493321         1.268918
 H        -0.547702        -0.377489         0.752349
 H        -0.670764        -0.610932        -1.067444
 H        -0.026638        -1.818691         0.167691
 H         1.835648         1.040828        -2.108744
 H         1.403850         2.277761        -0.830787
 H         4.360278         1.386619        -1.953243
 H         5.354190         0.217195        -1.069809
 H         3.236753        -1.525052         0.038708
 H         1.800053        -0.149483         2.086439
 H         0.979206         1.273524         1.469082
