19
Iteration:   678
 C        -0.103489        -0.725851        -0.223568
 C         1.357513        -0.106825        -0.064321
 C         1.810188         1.236671        -0.705342
 C         3.128571         0.800201        -0.335241
 C         4.187114         0.680984        -1.426825
 O         3.329848        -0.271209        -2.060448
 C         2.615904        -0.642080        -0.682804
 O         3.207628         0.868208         1.115050
 C         1.877813         0.162918         1.410885
 H        -0.872828        -0.370982         0.429811
 H        -0.343348        -0.573677        -1.276574
 H         0.091189        -1.767371        -0.164521
 H         1.640709         1.234732        -1.803435
 H         1.450770         2.207899        -0.222518
 H         4.256600         1.472351        -2.130223
 H         5.198485         0.292017        -1.064305
 H         3.061921        -1.579516        -0.365557
 H         2.031938        -0.777889         2.036087
 H         1.157885         0.862799         1.841935
