19
Iteration:  4119charge 0 multiplicity 1
 C        -0.065522        -0.701993        -0.219518
 C         1.302834        -0.026244        -0.155778
 C         1.721846         1.212097        -0.955768
 C         3.117078         0.828013        -0.350041
 C         4.243891         0.563794        -1.327195
 O         3.457805        -0.695378        -1.783074
 C         2.714079        -0.673534        -0.562185
 O         3.120756         1.145631         1.028157
 C         1.785576         0.350906         1.272380
 H        -0.729790        -0.088274         0.319511
 H        -0.362264        -0.835455        -1.244383
 H         0.049285        -1.698320         0.201222
 H         1.840287         1.289349        -1.990260
 H         1.279693         2.194162        -0.633302
 H         4.348464         1.309181        -2.192572
 H         5.173871         0.369255        -0.839439
 H         2.981683        -1.524336         0.163986
 H         2.073687        -0.415599         2.019772
 H         1.007697         0.977847         1.680535
