19
Iteration:  1229charge 0 multiplicity 1
 C        -0.054866        -0.833963        -0.195570
 C         1.334587        -0.168184        -0.114518
 C         1.883100         1.218002        -0.873679
 C         3.186497         0.787413        -0.243311
 C         4.210204         0.592759        -1.402144
 O         3.363911        -0.586027        -1.930435
 C         2.743786        -0.598696        -0.648055
 O         3.109318         1.053276         1.085546
 C         1.664124         0.492945         1.311529
 H        -0.568991        -0.386178        -1.080462
 H         0.076222        -1.998262        -0.148378
 H        -0.799197        -0.496438         0.553511
 H         1.997565         1.152708        -1.998620
 H         1.468354         2.309092        -0.561839
 H         4.406644         1.406272        -2.066871
 H         5.288747         0.091203        -1.103803
 H         3.029646        -1.468954        -0.047724
 H         1.632640        -0.000483         2.311129
 H         1.043550         1.446955         1.479103
