19
Iteration:  2387charge 0 multiplicity 1
 C        -0.056017        -0.658863        -0.137376
 C         1.318862        -0.123441        -0.153422
 C         1.730835         1.163820        -0.986851
 C         3.127233         0.776971        -0.356375
 C         4.253583         0.577608        -1.325181
 O         3.473451        -0.600686        -1.834646
 C         2.731223        -0.672050        -0.544025
 O         3.059512         1.114992         1.021750
 C         1.796724         0.405039         1.261735
 H        -0.836446         0.128793        -0.089248
 H        -0.188346        -1.368373        -0.947232
 H        -0.349258        -1.234312         0.774608
 H         1.719417         1.123015        -2.062814
 H         1.439017         2.175929        -0.713012
 H         4.339146         1.286122        -2.070697
 H         5.189146         0.157362        -0.914686
 H         3.193818        -1.520764        -0.028294
 H         1.842534        -0.336109         2.149343
 H         1.052374         1.149815         1.632832
