19
Iteration:   651
 C        -0.018003        -0.727215        -0.236331
 C         1.378292         0.001745        -0.233716
 C         1.677323         1.452036        -0.643377
 C         3.157912         0.767464        -0.259667
 C         4.079546         0.761853        -1.473450
 O         3.331591        -0.472011        -2.027382
 C         2.750807        -0.627083        -0.680132
 O         3.237980         0.710007         1.170706
 C         1.857222         0.166618         1.340973
 H        -0.878565        -0.004169        -0.143939
 H        -0.038714        -1.346076        -1.166797
 H         0.059906        -1.575979         0.611586
 H         1.472469         1.804523        -1.651181
 H         1.320160         2.151601         0.089199
 H         3.710943         1.589765        -2.218062
 H         5.179854         0.639675        -1.435746
 H         3.242623        -1.428184        -0.076596
 H         1.778326        -0.712185         1.946325
 H         1.203848         0.939858         1.806097
