19
Iteration:  4719
 C        -0.024213        -0.694599        -0.071194
 C         1.292897        -0.009407        -0.196984
 C         1.715053         1.232523        -1.030411
 C         3.093188         0.751983        -0.396738
 C         4.196502         0.550550        -1.364526
 O         3.575995        -0.633858        -1.789652
 C         2.723752        -0.697397        -0.542947
 O         3.112261         0.953310         1.100423
 C         1.702222         0.550946         1.205697
 H        -0.718033        -0.004857         0.374587
 H        -0.263593        -1.135064        -1.035593
 H         0.063684        -1.656684         0.551704
 H         1.616482         1.216509        -2.113619
 H         1.251081         2.118230        -0.662022
 H         4.357048         1.361153        -2.187380
 H         5.080793         0.293569        -0.843324
 H         3.127239        -1.361972         0.245290
 H         1.859347        -0.164676         1.967610
 H         0.981803         1.420163         1.324777
