19
Iteration:   974
 C         0.039231        -0.809014        -0.212773
 C         1.305748        -0.007056        -0.133754
 C         1.776387         1.287970        -0.864935
 C         3.167266         0.764923        -0.269595
 C         4.193163         0.586352        -1.423207
 O         3.347854        -0.469739        -1.926122
 C         2.677487        -0.588455        -0.634445
 O         3.136277         0.937424         1.142047
 C         1.804008         0.341592         1.306982
 H        -0.308016        -1.039727         0.828403
 H        -0.771662        -0.083042        -0.641297
 H         0.008004        -1.736693        -0.852937
 H         1.793475         1.108136        -1.977810
 H         1.427250         2.334021        -0.562378
 H         4.383263         1.181320        -2.218442
 H         5.110256         0.080636        -0.972546
 H         3.060005        -1.426044        -0.086343
 H         1.643684        -0.480312         2.010851
 H         1.105247         1.085479         1.629426
