19
Iteration:  2096charge 0 multiplicity 1
 C        -0.116942        -0.707863        -0.207780
 C         1.302936        -0.066986        -0.124190
 C         1.783143         1.144281        -0.947408
 C         3.132518         0.834135        -0.363107
 C         4.320913         0.509742        -1.304878
 O         3.448225        -0.635199        -1.883978
 C         2.716418        -0.686051        -0.559060
 O         2.993280         1.238712         1.050566
 C         1.825770         0.367135         1.311269
 H        -0.681728        -0.169239         0.581507
 H        -0.589616        -0.528416        -1.189229
 H         0.115862        -1.731384         0.014537
 H         1.780014         0.825283        -1.993173
 H         1.208060         2.176198        -0.809742
 H         4.565007         1.236093        -2.240054
 H         5.237219         0.128548        -0.756581
 H         3.198267        -1.424761         0.037126
 H         2.137517        -0.526446         1.969352
 H         1.140051         1.049625         1.890513
