19
Iteration:  1890
 C         0.031915        -0.764181        -0.227613
 C         1.317351        -0.060566        -0.218597
 C         1.751550         1.187265        -1.007897
 C         3.220293         0.724608        -0.245530
 C         4.214334         0.521787        -1.372485
 O         3.367954        -0.558751        -1.790089
 C         2.713239        -0.705167        -0.469698
 O         3.079814         1.151824         1.071847
 C         1.758169         0.491323         1.250670
 H        -0.647789        -0.652244         0.665731
 H        -0.600700        -0.315796        -0.971433
 H         0.184770        -1.774535        -0.526204
 H         1.710667         1.081436        -2.095256
 H         1.397364         2.233005        -0.780745
 H         4.343743         1.181140        -2.116210
 H         5.125772        -0.079131        -1.071618
 H         3.115765        -1.509878         0.211370
 H         1.716816        -0.282971         2.003186
 H         1.163187         1.312126         1.501214
