19
Iteration:  2139
 C         0.049718        -0.745246        -0.218186
 C         1.372257        -0.047921        -0.210839
 C         1.728921         1.183863        -0.897451
 C         3.152086         0.811455        -0.279714
 C         4.194730         0.550113        -1.421869
 O         3.404000        -0.689734        -1.838030
 C         2.725634        -0.665533        -0.518710
 O         3.083714         1.071155         1.108018
 C         1.749507         0.540726         1.245790
 H        -0.646048        -0.416732         0.545296
 H        -0.425654        -0.715787        -1.210926
 H         0.161485        -1.830026        -0.055321
 H         1.761142         1.138621        -2.005670
 H         1.318872         2.295090        -0.547705
 H         4.513332         1.366577        -2.178019
 H         5.116922         0.292121        -0.931459
 H         2.884467        -1.538279         0.105339
 H         1.639492        -0.088284         2.140727
 H         0.956660         1.280319         1.261727
