19
Iteration:  4726
 C        -0.055581        -0.687971        -0.098444
 C         1.317498        -0.057732        -0.175955
 C         1.718412         1.167426        -0.977896
 C         3.127463         0.829190        -0.369299
 C         4.222061         0.549441        -1.391458
 O         3.579491        -0.624354        -1.826067
 C         2.728373        -0.660401        -0.553574
 O         3.109450         0.945533         1.047994
 C         1.667331         0.582950         1.267720
 H        -0.920401        -0.120934         0.294207
 H        -0.391920        -1.195603        -1.019360
 H         0.013402        -1.499732         0.606955
 H         1.700442         1.019250        -2.176242
 H         1.376064         2.201795        -0.696917
 H         4.446740         1.120611        -2.296036
 H         5.167355         0.324204        -0.741451
 H         3.046488        -1.438537         0.212924
 H         1.569152        -0.190225         2.069615
 H         1.025990         1.381715         1.608488
