19
Iteration:   960charge 0 multiplicity 1
 C        -0.008949        -0.767023        -0.252434
 C         1.308378         0.022124        -0.196144
 C         1.604659         1.364855        -0.802616
 C         3.211269         0.807531        -0.306376
 C         4.295047         0.500608        -1.383519
 O         3.357465        -0.539325        -1.923261
 C         2.661415        -0.609501        -0.575595
 O         3.201528         0.984401         1.114091
 C         1.763658         0.299305         1.284436
 H        -0.405388        -1.084823         0.684366
 H        -0.793905        -0.461498        -0.812924
 H         0.424553        -1.697647        -0.661456
 H         1.485631         1.442464        -1.901642
 H         1.137693         2.240530        -0.262940
 H         4.327966         1.435629        -1.989939
 H         5.267705         0.152998        -1.115165
 H         2.978615        -1.578847        -0.084258
 H         2.166039        -0.586364         1.809504
 H         1.197311         1.024671         1.895940
