19
Iteration:  2453
 C        -0.014045        -0.797661        -0.277696
 C         1.304069        -0.001279        -0.182423
 C         1.757075         1.257976        -0.956254
 C         3.128747         0.876648        -0.293585
 C         4.197736         0.521077        -1.488971
 O         3.414147        -0.736908        -1.802074
 C         2.730463        -0.613172        -0.475286
 O         3.120127         1.104367         1.126647
 C         1.787446         0.446398         1.277555
 H        -0.940589        -0.246530         0.075890
 H        -0.202088        -1.182276        -1.313112
 H         0.090039        -1.796755         0.310862
 H         1.892167         1.261439        -2.071361
 H         1.423106         2.255355        -0.495165
 H         4.222269         1.275017        -2.223041
 H         5.155359         0.215078        -0.985124
 H         3.032386        -1.409571         0.224299
 H         1.745663        -0.320272         2.149231
 H         1.092809         1.208652         1.725203
