19
Iteration:   855charge 0 multiplicity 1
 C        -0.035986        -0.756215        -0.178654
 C         1.301820        -0.000868        -0.190577
 C         1.716239         1.317490        -0.796146
 C         3.174926         0.812792        -0.331379
 C         4.268385         0.626655        -1.476058
 O         3.423690        -0.439516        -1.911657
 C         2.625123        -0.614966        -0.627472
 O         3.102139         0.854894         1.095133
 C         1.858342         0.238320         1.344387
 H        -0.692704        -0.351560        -0.958692
 H         0.168048        -1.875461        -0.336483
 H        -0.638731        -0.582889         0.675501
 H         1.500044         1.247298        -1.874857
 H         1.277567         2.174057        -0.278143
 H         4.408459         1.512210        -2.015572
 H         5.262402         0.161593        -1.081372
 H         2.919226        -1.521351        -0.170873
 H         1.944354        -0.458553         2.138506
 H         1.289644         0.989899         1.862038
