19
Iteration:  4647charge 0 multiplicity 1
 C         0.048584        -0.718356        -0.422337
 C         1.386559        -0.098769        -0.064495
 C         1.722158         1.152282        -0.885445
 C         3.099412         0.837363        -0.363142
 C         4.151883         0.447995        -1.344721
 O         3.304771        -0.601218        -1.759719
 C         2.702116        -0.734643        -0.463315
 O         3.142659         1.259831         0.989832
 C         1.842933         0.442884         1.324425
 H        -0.812271        -0.067341        -0.104207
 H         0.048228        -0.959222        -1.511369
 H        -0.038039        -1.686125         0.037461
 H         1.610837         1.092994        -1.939922
 H         1.401692         2.210708        -0.503850
 H         4.513407         1.025514        -2.172756
 H         5.045397         0.005632        -0.728927
 H         3.217630        -1.439971         0.219640
 H         1.952256        -0.469121         1.883099
 H         1.209856         1.229942         1.601235
