19
Iteration:   859charge 0 multiplicity 1
 C        -0.044413        -0.742343        -0.189145
 C         1.338493        -0.008366        -0.172407
 C         1.728751         1.317658        -0.793133
 C         3.149277         0.789032        -0.333509
 C         4.301348         0.644626        -1.463770
 O         3.420664        -0.457827        -1.938131
 C         2.629101        -0.638586        -0.637850
 O         3.087185         0.850789         1.127347
 C         1.853120         0.282956         1.325583
 H        -0.761633        -0.384782        -0.922034
 H         0.081416        -1.760448        -0.394489
 H        -0.541444        -0.724405         0.803920
 H         1.408728         1.271561        -1.821877
 H         1.299594         2.118189        -0.223601
 H         4.342170         1.645378        -2.081977
 H         5.233723         0.227136        -1.229677
 H         2.976446        -1.615677        -0.151372
 H         1.958517        -0.492717         2.177048
 H         1.168205         1.107423         1.812281
