19
Iteration:   340
 C         0.003335        -0.767872        -0.256952
 C         1.321341        -0.031207        -0.097995
 C         1.684112         1.458237        -0.507727
 C         3.183743         0.834066        -0.307683
 C         4.143292         0.780351        -1.525065
 O         3.168918        -0.201706        -2.093184
 C         2.645729        -0.488975        -0.761493
 O         3.294323         0.602078         1.194543
 C         1.954662        -0.109825         1.340369
 H        -0.146618        -0.993200        -1.345550
 H        -0.050666        -1.767224         0.218268
 H        -0.781694        -0.118434         0.128332
 H         1.613322         1.679042        -1.560554
 H         1.408090         2.211686         0.130013
 H         4.286012         1.649322        -2.221399
 H         5.166062         0.224834        -1.322299
 H         3.107559        -1.373335        -0.302220
 H         2.083512        -1.074525         1.785053
 H         1.420157         0.480797         2.093340
