19
Iteration:  2521charge 0 multiplicity 1
 C        -0.058930        -0.712975        -0.222299
 C         1.290891        -0.042407        -0.171734
 C         1.742167         1.145430        -0.959671
 C         3.225982         0.780720        -0.351277
 C         4.325373         0.484251        -1.334384
 O         3.364083        -0.562297        -1.783864
 C         2.745312        -0.621779        -0.469065
 O         2.987386         1.227513         0.948223
 C         1.836902         0.361456         1.310132
 H        -0.800284        -0.200512         0.367362
 H        -0.474618        -0.711583        -1.305226
 H         0.159588        -1.833036         0.003054
 H         1.649071         1.015953        -2.055588
 H         1.239165         1.997215        -0.544779
 H         4.780278         1.000494        -2.144942
 H         5.052107        -0.186219        -0.817306
 H         3.112091        -1.516257         0.099125
 H         2.067065        -0.486881         2.108811
 H         1.052052         0.973284         1.866611
