19
Iteration:  3409
 C         0.057636        -0.727809        -0.360947
 C         1.374251         0.005799        -0.125101
 C         1.815211         1.199528        -0.948521
 C         3.131303         0.812464        -0.377492
 C         4.203784         0.449793        -1.454564
 O         3.306500        -0.701026        -1.780000
 C         2.794675        -0.647483        -0.426135
 O         3.050407         1.225997         1.062286
 C         1.713293         0.409635         1.395783
 H        -0.769003        -0.225079         0.234419
 H        -0.313474        -0.650412        -1.443381
 H         0.164963        -1.789086         0.043306
 H         1.753040         1.016398        -2.011688
 H         1.306097         2.188677        -0.753516
 H         4.412148         1.012000        -2.273747
 H         5.169104         0.106976        -1.064926
 H         3.205017        -1.414791         0.249307
 H         2.040754        -0.345981         2.111930
 H         0.990616         1.102142         1.789392
