19
Iteration:  4018charge 0 multiplicity 1
 C         0.021589        -0.799125        -0.263163
 C         1.322232        -0.037399        -0.159889
 C         1.715193         1.273064        -0.923480
 C         3.119180         0.761080        -0.321861
 C         4.222777         0.508334        -1.412375
 O         3.436300        -0.626578        -1.835972
 C         2.683707        -0.662968        -0.494623
 O         3.103098         1.083107         1.063577
 C         1.750236         0.518518         1.324538
 H        -0.850998        -0.227518        -0.026131
 H         0.010867        -1.095643        -1.322900
 H         0.105249        -1.615040         0.365504
 H         1.793030         1.109519        -2.064190
 H         1.363735         2.178911        -0.451435
 H         4.509002         1.372455        -2.098067
 H         5.140457         0.087704        -1.087784
 H         3.059736        -1.526585         0.167522
 H         1.776807        -0.301676         2.050167
 H         1.196077         1.395200         1.666755
