19
Iteration:  2594charge 0 multiplicity 1
 C        -0.034274        -0.688518        -0.291601
 C         1.370023        -0.130858        -0.117801
 C         1.824739         1.116965        -0.906661
 C         3.130830         0.792419        -0.348715
 C         4.200732         0.566177        -1.424611
 O         3.389038        -0.600574        -1.843892
 C         2.769552        -0.682521        -0.539377
 O         3.090220         1.121703         1.127210
 C         1.723927         0.490171         1.319577
 H        -0.762140         0.163065        -0.428851
 H        -0.092392        -1.482968        -1.023162
 H        -0.182205        -1.172765         0.652024
 H         1.751956         0.742871        -1.993503
 H         1.419972         2.166400        -0.631587
 H         4.119645         1.228303        -2.277320
 H         5.213445         0.243946        -1.015754
 H         3.203552        -1.489217         0.066366
 H         1.654116        -0.105379         2.160739
 H         0.937877         1.221466         1.501278
