19
Iteration:  4445charge 0 multiplicity 1
 C        -0.037167        -0.770974        -0.276305
 C         1.309913        -0.159216        -0.136125
 C         1.727709         1.190862        -0.968451
 C         3.130200         0.861744        -0.372200
 C         4.257738         0.418475        -1.260425
 O         3.374282        -0.507470        -1.780556
 C         2.697321        -0.678161        -0.501369
 O         3.086351         1.214209         0.987179
 C         1.867456         0.423047         1.243718
 H        -0.771747         0.018635        -0.228568
 H        -0.122831        -1.416822        -1.141826
 H        -0.280045        -1.460901         0.564005
 H         1.605853         1.121277        -2.076874
 H         1.245807         2.023068        -0.603817
 H         4.631746         1.200688        -2.041165
 H         5.083166        -0.041746        -0.733835
 H         3.118497        -1.364550         0.177876
 H         2.224130        -0.373136         1.957789
 H         1.210491         0.984717         1.900851
