19
Iteration:  4478charge 0 multiplicity 1
 C         0.078085        -0.791787        -0.289998
 C         1.363037        -0.053073        -0.027388
 C         1.794767         1.183291        -0.904964
 C         3.193916         0.721351        -0.346688
 C         4.200776         0.507259        -1.445940
 O         3.406497        -0.629431        -1.853930
 C         2.701294        -0.632469        -0.492779
 O         3.040861         1.080847         1.094870
 C         1.672049         0.596403         1.298754
 H        -0.889225        -0.416644         0.011021
 H        -0.226653        -0.857384        -1.321396
 H         0.061585        -1.777165         0.229228
 H         1.828142         1.108782        -2.028459
 H         1.547373         2.136143        -0.727741
 H         4.112829         1.366827        -2.257999
 H         5.227216         0.288369        -1.261033
 H         3.140212        -1.344184         0.120959
 H         1.794569        -0.089654         2.212408
 H         0.954957         1.407165         1.512093
