19
Iteration:  3803charge 0 multiplicity 1
 C        -0.100746        -0.765399        -0.185227
 C         1.291343        -0.077747        -0.252265
 C         1.725372         1.290236        -0.948621
 C         3.130641         0.854922        -0.352407
 C         4.212393         0.616338        -1.392191
 O         3.572906        -0.739398        -1.745403
 C         2.690022        -0.694925        -0.482070
 O         3.109775         1.081817         1.053491
 C         1.802075         0.455975         1.213458
 H        -0.647719        -0.139770         0.538622
 H        -0.639183        -0.729543        -1.198693
 H         0.152024        -1.753923         0.343119
 H         1.529556         1.030982        -2.042916
 H         1.304351         2.273715        -0.483563
 H         4.118310         1.395489        -2.063410
 H         5.272566         0.371518        -1.135384
 H         2.823345        -1.490131         0.213286
 H         1.920671        -0.266859         2.021651
 H         0.994384         1.092286         1.498363
