19
Iteration:   131charge 0 multiplicity 1
 C         0.072993        -0.679391        -0.249211
 C         1.386995        -0.059032        -0.118145
 C         1.617940         1.484988        -0.342849
 C         3.085863         0.883388        -0.259839
 C         4.057777         0.878119        -1.412017
 O         3.149933        -0.088908        -2.147935
 C         2.610374        -0.454613        -0.812260
 O         3.350865         0.451297         1.061992
 C         2.078925        -0.321129         1.265182
 H        -0.138921        -0.850224        -1.288982
 H        -0.050616        -1.583337         0.368765
 H        -0.674607         0.041793         0.169207
 H         1.335254         1.769222        -1.325111
 H         1.376812         2.119558         0.444417
 H         4.178034         1.752472        -1.973867
 H         4.955239         0.295876        -1.154351
 H         2.995247        -1.501968        -0.558135
 H         2.312903        -1.397062         1.574773
 H         1.522256         0.189715         2.086216
