19
Iteration:  2513charge 0 multiplicity 1
 C        -0.043319        -0.749032        -0.283636
 C         1.332427        -0.078738        -0.115854
 C         1.748861         1.131476        -0.947310
 C         3.171806         0.846532        -0.309480
 C         4.328046         0.424943        -1.358334
 O         3.353776        -0.562496        -1.800928
 C         2.738411        -0.641061        -0.465210
 O         3.024322         1.226123         0.980746
 C         1.791947         0.406046         1.322454
 H        -0.773375        -0.270356         0.397978
 H        -0.475147        -0.505374        -1.252719
 H        -0.055702        -1.825958        -0.039222
 H         1.744574         1.004197        -1.968509
 H         1.278670         2.033512        -0.696494
 H         4.684669         1.158966        -2.186722
 H         5.238993        -0.012702        -1.066026
 H         2.961359        -1.596481         0.056054
 H         2.212352        -0.384237         1.935806
 H         1.068334         1.125872         1.663902
