19
Iteration:  3879charge 0 multiplicity 1
 C         0.041450        -0.851865        -0.299386
 C         1.308514        -0.045748        -0.182377
 C         1.794197         1.323264        -0.894518
 C         3.128869         0.816946        -0.366355
 C         4.219133         0.503712        -1.323819
 O         3.316321        -0.660837        -1.771083
 C         2.674783        -0.589531        -0.459473
 O         3.063637         1.178758         1.036540
 C         1.865124         0.377621         1.220592
 H        -0.793559        -0.102155        -0.366406
 H        -0.017119        -1.595116        -1.182908
 H        -0.120012        -1.431867         0.696311
 H         1.780809         1.167820        -1.974174
 H         1.442663         2.326935        -0.631894
 H         4.551417         1.072714        -2.155662
 H         5.177740         0.275153        -0.846598
 H         2.937513        -1.369571         0.260765
 H         2.135974        -0.589700         1.692849
 H         1.190046         0.971591         1.755528
