19
Iteration:  4767
 C         0.049494        -0.682167        -0.317650
 C         1.344497        -0.067434        -0.183364
 C         1.803967         1.123646        -0.908579
 C         3.127613         0.816648        -0.329151
 C         4.198904         0.451437        -1.341988
 O         3.322750        -0.580997        -1.785639
 C         2.735224        -0.742059        -0.432745
 O         3.014824         1.282730         0.975959
 C         1.838867         0.387068         1.311210
 H        -0.629213         0.231549        -0.172017
 H        -0.092781        -1.300349        -1.239215
 H        -0.125138        -1.348928         0.512929
 H         1.776185         1.099613        -1.993719
 H         1.280298         2.025089        -0.563408
 H         4.336836         1.146287        -2.093068
 H         5.095636         0.043522        -0.832296
 H         3.051208        -1.747525        -0.168703
 H         2.259124        -0.512998         1.926325
 H         1.213730         1.118200         1.835483
