19
Iteration:  2709
 C        -0.020444        -0.658512        -0.133034
 C         1.332010        -0.090835        -0.160925
 C         1.756337         1.061656        -0.982372
 C         3.204893         0.683764        -0.296377
 C         4.322563         0.607076        -1.348200
 O         3.411566        -0.540478        -1.843108
 C         2.737949        -0.650615        -0.502435
 O         3.049181         1.164651         1.017356
 C         1.681417         0.427394         1.247427
 H        -0.661076        -0.097012         0.531521
 H        -0.542674        -0.564740        -1.109318
 H        -0.011207        -1.791767        -0.055199
 H         1.821815         0.727200        -1.963652
 H         1.264980         1.977003        -0.679314
 H         4.457994         1.350894        -2.182167
 H         5.200610         0.088780        -0.944590
 H         3.015778        -1.659107        -0.151272
 H         1.712531        -0.307749         2.048084
 H         0.951010         1.156423         1.659338
