19
Iteration:  1741charge 0 multiplicity 1
 C        -0.001442        -0.769861        -0.241519
 C         1.294563         0.012217        -0.113925
 C         1.754076         1.295252        -0.960065
 C         3.158488         0.811374        -0.358476
 C         4.254479         0.447524        -1.328530
 O         3.402550        -0.616518        -1.787130
 C         2.666029        -0.674702        -0.539884
 O         3.047581         1.192921         1.028786
 C         1.854905         0.361376         1.291671
 H        -0.781144        -0.166351        -0.767367
 H         0.290507        -1.699138        -0.759917
 H        -0.742136        -1.074819         0.582472
 H         1.509392         1.118089        -1.986954
 H         1.355716         2.216245        -0.600943
 H         4.578211         1.263367        -2.097437
 H         5.148530        -0.006198        -1.015538
 H         3.130225        -1.579001        -0.121400
 H         2.163845        -0.612136         1.817443
 H         1.125828         0.947761         1.924550
