19
Iteration:  3289
 C        -0.018539        -0.727207        -0.256218
 C         1.259598        -0.013857        -0.096070
 C         1.762791         1.191170        -0.998271
 C         3.155219         0.787806        -0.403388
 C         4.210205         0.516624        -1.378641
 O         3.506278        -0.697522        -1.784263
 C         2.652329        -0.641986        -0.429737
 O         3.112423         1.144547         0.964825
 C         1.745012         0.450151         1.351267
 H        -0.971477        -0.229174        -0.033013
 H        -0.169036        -0.866955        -1.376183
 H         0.069353        -1.666615         0.370047
 H         1.492312         1.250274        -1.986109
 H         1.485797         2.098294        -0.456307
 H         4.291808         1.284674        -2.142496
 H         5.291598         0.362516        -0.970245
 H         3.020827        -1.505679         0.163975
 H         2.028934        -0.349910         2.019426
 H         1.118888         1.136477         1.882865
