19
Iteration:  3558charge 0 multiplicity 1
 C         0.009328        -0.749465        -0.390126
 C         1.365644        -0.084646        -0.166919
 C         1.699063         1.204184        -0.890442
 C         3.136750         0.854650        -0.357612
 C         4.159629         0.470272        -1.371112
 O         3.371897        -0.647189        -1.781677
 C         2.718298        -0.656655        -0.381508
 O         3.171764         1.173717         0.975279
 C         1.780324         0.450770         1.344643
 H        -0.742721        -0.022980        -0.129749
 H         0.032951        -1.203143        -1.354917
 H        -0.125083        -1.626068         0.242970
 H         1.651370         1.266501        -1.940001
 H         1.186777         2.133720        -0.540169
 H         4.497138         1.133666        -2.274558
 H         4.977862         0.132977        -0.745058
 H         3.098583        -1.509170         0.223077
 H         1.976562        -0.364266         2.050430
 H         1.076247         1.187617         1.757001
