19
Iteration:  3212
 C        -0.004155        -0.752465        -0.166958
 C         1.276350        -0.084611        -0.125947
 C         1.784805         1.172413        -1.014362
 C         3.157420         0.761076        -0.374022
 C         4.314170         0.448027        -1.343097
 O         3.427974        -0.592086        -1.892138
 C         2.647301        -0.681585        -0.509875
 O         2.997074         1.323148         1.011848
 C         1.799170         0.392019         1.370420
 H        -0.735178         0.003561         0.145888
 H        -0.102038        -0.726806        -1.293629
 H        -0.148501        -1.691973         0.423117
 H         2.024251         1.004898        -2.000719
 H         1.340014         2.097665        -0.682788
 H         4.624631         1.151477        -2.130136
 H         5.173146        -0.122203        -0.707468
 H         2.931781        -1.490385         0.182135
 H         2.062649        -0.505493         1.977023
 H         1.078286         0.952636         1.961810
