19
Iteration:  4997
 C         0.000062        -0.763100        -0.230139
 C         1.243536         0.048219        -0.126397
 C         1.683519         1.222195        -0.944437
 C         3.096520         0.844946        -0.424040
 C         4.264414         0.374213        -1.304682
 O         3.523562        -0.617170        -1.879342
 C         2.673410        -0.612076        -0.549448
 O         3.056374         1.157333         0.994577
 C         1.838484         0.424057         1.397866
 H        -0.976853        -0.258358         0.191035
 H        -0.212649        -1.175662        -1.238119
 H         0.050977        -1.691750         0.323471
 H         1.461413         1.076054        -2.069664
 H         1.272333         2.104568        -0.565181
 H         4.695506         1.071814        -2.011319
 H         5.101403         0.019043        -0.543751
 H         3.068927        -1.387260         0.128353
 H         2.357785        -0.393804         1.964784
 H         1.058326         0.959792         1.974445
