19
Iteration:  3975charge 0 multiplicity 1
 C        -0.064463        -0.752370        -0.269472
 C         1.292276         0.014524        -0.102326
 C         1.730488         1.313555        -0.951389
 C         3.118738         0.818228        -0.406287
 C         4.247590         0.475217        -1.361967
 O         3.473194        -0.676063        -1.783668
 C         2.761499        -0.654049        -0.517698
 O         3.014278         1.175175         1.011498
 C         1.805264         0.326634         1.358393
 H        -0.736340        -0.257925         0.391896
 H        -0.426500        -0.656929        -1.314330
 H         0.019481        -1.770184        -0.024626
 H         1.549436         1.012815        -2.041989
 H         1.340780         2.305497        -0.765932
 H         4.694794         1.040322        -2.278412
 H         5.183535         0.264923        -0.807512
 H         3.332209        -1.417047         0.123172
 H         2.254290        -0.494175         2.007571
 H         1.043502         0.909612         1.904763
