19
Iteration:  2486
 C         0.030470        -0.724211        -0.331495
 C         1.361555        -0.007674        -0.135753
 C         1.804091         1.143727        -0.909639
 C         3.116369         0.768680        -0.302739
 C         4.147791         0.578602        -1.466428
 O         3.383358        -0.721012        -1.824314
 C         2.793861        -0.692357        -0.442643
 O         3.067996         1.117279         1.067034
 C         1.725136         0.544111         1.344013
 H        -0.798789        -0.571185         0.420198
 H        -0.332111        -0.574129        -1.395417
 H         0.160401        -1.852229        -0.097060
 H         1.763962         1.265417        -2.047969
 H         1.380223         2.166563        -0.506746
 H         4.315580         1.357970        -2.216492
 H         5.192820         0.236281        -1.092628
 H         3.112884        -1.511120         0.219963
 H         1.901149        -0.237020         2.202118
 H         1.085206         1.464985         1.400055
