19
Iteration:  1139
 C        -0.033965        -0.753882        -0.207996
 C         1.335040        -0.056794        -0.095343
 C         1.776077         1.281425        -0.833071
 C         3.111783         0.795588        -0.367847
 C         4.187765         0.623436        -1.373749
 O         3.397164        -0.550513        -1.881001
 C         2.711815        -0.676061        -0.531049
 O         3.139712         1.014513         1.015953
 C         1.766692         0.345243         1.257248
 H         0.086681        -1.595445        -0.868457
 H        -0.347560        -1.037598         0.752651
 H        -0.668749        -0.112128        -0.755738
 H         1.686868         1.178920        -1.942500
 H         1.497479         2.348541        -0.436210
 H         4.453868         1.371156        -2.100218
 H         5.062795         0.057423        -0.883771
 H         3.094112        -1.522633         0.044969
 H         2.006515        -0.437702         2.021457
 H         1.030189         1.038568         1.657729
