19
Iteration:  3140charge 0 multiplicity 1
 C        -0.049409        -0.693052        -0.200329
 C         1.312682        -0.102829        -0.111537
 C         1.823997         1.162595        -0.946771
 C         3.193922         0.743673        -0.278608
 C         4.230720         0.650561        -1.478228
 O         3.414529        -0.634595        -1.804046
 C         2.802101        -0.761365        -0.485991
 O         3.068430         1.139233         1.048070
 C         1.649382         0.512811         1.276289
 H        -0.955406         0.018365        -0.303549
 H         0.001515        -1.289800        -1.124227
 H        -0.254053        -1.266192         0.695925
 H         1.952989         0.767483        -1.981537
 H         1.577203         2.234318        -0.593570
 H         4.105968         1.338524        -2.400586
 H         5.189203         0.338517        -1.298180
 H         3.184135        -1.643660         0.063940
 H         1.884744        -0.368512         1.865000
 H         0.782533         1.069816         1.709608
