19
Iteration:  1304charge 0 multiplicity 1
 C        -0.041651        -0.672765        -0.292383
 C         1.321281        -0.085580        -0.062192
 C         1.726475         1.153568        -0.815449
 C         3.178585         0.747933        -0.315530
 C         4.291228         0.556293        -1.385588
 O         3.392801        -0.522060        -1.889170
 C         2.718951        -0.707510        -0.539483
 O         3.091102         1.190014         0.997474
 C         1.779131         0.328123         1.321527
 H        -0.205042        -0.968899        -1.328998
 H        -0.176861        -1.482454         0.335399
 H        -0.816778         0.048816        -0.111062
 H         1.553858         1.021049        -1.931905
 H         1.085600         2.092008        -0.492945
 H         4.307907         1.331446        -2.091446
 H         5.272858         0.141701        -1.039927
 H         3.073739        -1.587868         0.036447
 H         2.263908        -0.523455         1.865194
 H         0.968297         0.825996         1.924899
