19
Iteration:  1133charge 0 multiplicity 1
 C        -0.013954        -0.749914        -0.204143
 C         1.319388        -0.042211        -0.174088
 C         1.785816         1.242778        -0.831434
 C         3.127625         0.789702        -0.332273
 C         4.162948         0.599111        -1.388508
 O         3.378887        -0.538044        -1.934244
 C         2.739005        -0.671615        -0.493047
 O         3.139182         1.003207         1.047327
 C         1.774737         0.394721         1.300146
 H         0.190850        -1.682538        -0.807813
 H        -0.658017        -1.068262         0.757933
 H        -0.841284        -0.109676        -0.684438
 H         1.867503         1.129555        -1.897657
 H         1.373114         2.151455        -0.550228
 H         4.556096         1.410309        -2.065701
 H         5.038964         0.217788        -0.904645
 H         3.305675        -1.538826        -0.087978
 H         1.815855        -0.435014         1.997161
 H         1.071028         1.152771         1.741278
