19
Iteration:  2730charge 0 multiplicity 1
 C        -0.074138        -0.680411        -0.262832
 C         1.337820        -0.141599        -0.118488
 C         1.766928         1.226446        -0.985454
 C         3.083296         0.803487        -0.366245
 C         4.193756         0.534297        -1.319968
 O         3.464639        -0.601282        -1.822008
 C         2.771896        -0.731296        -0.511204
 O         3.027543         1.159717         1.012770
 C         1.868041         0.413718         1.340162
 H        -0.787495        -0.031339         0.180739
 H        -0.452566        -0.796264        -1.287474
 H        -0.150460        -1.734922         0.144423
 H         1.604375         1.024782        -2.021480
 H         1.330778         2.221896        -0.669730
 H         4.445375         1.314789        -2.064349
 H         5.084579         0.006061        -0.881781
 H         3.276816        -1.375805         0.232100
 H         2.034690        -0.327696         2.072570
 H         1.124578         1.089088         1.759602
