19
Iteration:  4117charge 0 multiplicity 1
 C        -0.064650        -0.704260        -0.228923
 C         1.272919        -0.016612        -0.151701
 C         1.698232         1.225677        -0.951005
 C         3.120349         0.826792        -0.375471
 C         4.244588         0.566449        -1.334553
 O         3.472916        -0.697894        -1.770554
 C         2.714626        -0.671883        -0.550796
 O         3.127578         1.136961         1.034585
 C         1.806713         0.346451         1.288399
 H        -0.746073        -0.097893         0.321131
 H        -0.369976        -0.863100        -1.275737
 H         0.053225        -1.643832         0.227996
 H         1.833736         1.216317        -2.052901
 H         1.263716         2.216590        -0.674515
 H         4.426863         1.343983        -2.141155
 H         5.132534         0.352170        -0.875068
 H         2.965198        -1.532467         0.134050
 H         2.065327        -0.428214         1.950357
 H         1.011739         0.958551         1.640989
