19
Iteration:    81
 C         0.006261        -0.644382        -0.197145
 C         1.392306        -0.194954        -0.121544
 C         1.813911         1.224037        -0.427364
 C         3.208364         0.618638        -0.217037
 C         4.052300         0.976934        -1.417650
 O         3.078298         0.178721        -2.179150
 C         2.587112        -0.581804        -0.981356
 O         3.295867         0.507719         1.186857
 C         2.026113        -0.152901         1.359073
 H        -0.023007        -1.797435        -0.316793
 H        -0.480573        -0.382969         0.771530
 H        -0.581803        -0.164750        -0.954706
 H         1.644923         1.440108        -1.523657
 H         1.540735         2.040875         0.327676
 H         3.967016         2.093044        -1.743775
 H         5.029271         0.496434        -1.485768
 H         2.977759        -1.550749        -1.139109
 H         2.236822        -1.109799         1.744414
 H         1.419283         0.427798         2.056988
