19
Iteration:  4282
 C        -0.059189        -0.776476        -0.195615
 C         1.290591        -0.071148        -0.123788
 C         1.748689         1.193375        -0.893595
 C         3.155779         0.757126        -0.390227
 C         4.304617         0.524301        -1.361311
 O         3.522483        -0.595408        -1.896201
 C         2.703612        -0.657342        -0.492477
 O         3.048862         1.059622         1.019432
 C         1.724299         0.547773         1.338269
 H        -0.831295        -0.085195         0.101280
 H        -0.214736        -1.074083        -1.233200
 H        -0.211003        -1.724954         0.335629
 H         1.682958         0.967042        -1.985875
 H         1.262286         2.186754        -0.746768
 H         4.321810         1.369215        -2.121848
 H         5.226900         0.369765        -0.923115
 H         3.088249        -1.554553         0.063468
 H         1.748924        -0.076408         2.186817
 H         1.123747         1.400808         1.605595
