19
Iteration:   439charge 0 multiplicity 1
 C        -0.021489        -0.784929        -0.156774
 C         1.260482        -0.006730        -0.180360
 C         1.751049         1.414240        -0.514117
 C         3.177677         0.728736        -0.247370
 C         4.085647         0.810102        -1.521779
 O         3.301847        -0.242093        -2.070639
 C         2.691628        -0.555764        -0.738376
 O         3.288119         0.672066         1.138283
 C         1.848430         0.004197         1.258360
 H        -0.590459        -0.535587         0.840683
 H        -0.739344        -0.647175        -1.024147
 H         0.308475        -1.807823        -0.126889
 H         1.720989         1.734382        -1.533587
 H         1.454790         2.155223         0.147197
 H         4.126440         1.739953        -2.165466
 H         5.186617         0.463183        -1.360894
 H         3.193091        -1.478756        -0.423518
 H         1.937286        -0.949381         1.677342
 H         1.197796         0.548717         1.915202
