19
Iteration:  3549charge 0 multiplicity 1
 C         0.010569        -0.719003        -0.411616
 C         1.335483        -0.139721        -0.084358
 C         1.766392         1.137838        -0.928472
 C         3.067863         0.837902        -0.364476
 C         4.182010         0.463983        -1.359827
 O         3.316038        -0.593503        -1.804637
 C         2.714722        -0.658159        -0.401522
 O         3.157018         1.225376         1.023494
 C         1.851446         0.424908         1.331043
 H        -0.727775         0.022494        -0.385362
 H        -0.080005        -1.086426        -1.424930
 H        -0.193046        -1.400269         0.366846
 H         1.634026         0.997590        -2.036999
 H         1.226006         2.034807        -0.479261
 H         4.686328         1.055099        -2.171922
 H         5.106941         0.064235        -0.765562
 H         3.324172        -1.283527         0.216479
 H         2.090896        -0.288634         2.168833
 H         0.974495         1.025785         1.473333
