19
Iteration:  2323charge 0 multiplicity 1
 C         0.030126        -0.731165        -0.370140
 C         1.322409        -0.020368        -0.125746
 C         1.717458         1.120198        -0.880011
 C         3.088593         0.755032        -0.312085
 C         4.219692         0.456685        -1.363177
 O         3.290726        -0.614959        -1.822748
 C         2.781275        -0.640835        -0.437928
 O         3.118311         1.233800         1.005320
 C         1.803349         0.461903         1.304306
 H        -0.765592        -0.529979         0.318661
 H        -0.074430        -0.638082        -1.499223
 H         0.316065        -1.858012        -0.203007
 H         1.521572         1.098390        -1.950833
 H         1.563666         2.110406        -0.501962
 H         4.553973         1.187224        -2.171905
 H         5.219538         0.139027        -0.899436
 H         3.142952        -1.464507         0.247901
 H         2.076874        -0.457470         1.937257
 H         1.093471         1.121105         1.849498
