19
Iteration:  2951charge 0 multiplicity 1
 C         0.081171        -0.817737        -0.206571
 C         1.361243        -0.041475        -0.189781
 C         1.768986         1.329061        -0.954983
 C         3.206135         0.852039        -0.303869
 C         4.269650         0.498344        -1.427918
 O         3.333412        -0.670802        -1.825851
 C         2.690697        -0.618390        -0.561607
 O         3.009250         1.117824         1.130683
 C         1.756832         0.470644         1.311860
 H        -0.963473        -0.474278        -0.137699
 H         0.173348        -1.423666        -1.128173
 H        -0.025940        -1.594986         0.562948
 H         1.664554         1.156963        -2.067327
 H         1.296217         2.222765        -0.424669
 H         4.537290         1.160479        -2.341447
 H         5.179217         0.031671        -1.117850
 H         2.957312        -1.577396        -0.051278
 H         1.968442        -0.335314         1.996756
 H         0.867416         1.039527         1.659628
