19
Iteration:  1335charge 0 multiplicity 1
 C        -0.086885        -0.694579        -0.216675
 C         1.355364        -0.109207        -0.167063
 C         1.806252         1.180877        -0.905326
 C         3.151507         0.776126        -0.317789
 C         4.156769         0.619648        -1.445813
 O         3.416786        -0.522021        -1.871241
 C         2.804336        -0.671273        -0.516258
 O         3.137470         0.946774         1.093613
 C         1.682845         0.453208         1.309480
 H        -0.225902        -1.484099        -0.974903
 H        -0.276369        -1.092604         0.742231
 H        -0.724047         0.209310        -0.295361
 H         1.906688         1.129124        -1.994916
 H         1.177230         1.936221        -0.547822
 H         4.108119         1.404186        -2.188041
 H         5.205966         0.423237        -1.223809
 H         3.352492        -1.378347         0.149581
 H         1.943782        -0.352530         1.993649
 H         0.979800         1.167106         1.724263
