19
Iteration:   491charge 0 multiplicity 1
 C         0.024951        -0.662697        -0.357483
 C         1.352056        -0.156876         0.018660
 C         1.645262         1.222829        -0.615481
 C         3.175244         0.839797        -0.279243
 C         4.197142         0.693814        -1.420520
 O         3.128212        -0.171410        -2.122474
 C         2.695905        -0.581242        -0.646545
 O         3.289219         0.851344         1.105198
 C         1.949529        -0.041616         1.392534
 H        -0.375752        -1.573103         0.096163
 H        -0.682422         0.164366        -0.113724
 H        -0.133027        -0.742671        -1.455178
 H         1.143040         1.316109        -1.642839
 H         1.200028         2.129377        -0.036061
 H         4.490373         1.449969        -2.039403
 H         5.029194         0.055248        -1.192814
 H         3.326316        -1.492681        -0.472162
 H         2.237222        -1.101151         1.781776
 H         1.360119         0.574825         2.076222
