19
Iteration:  4235charge 0 multiplicity 1
 C        -0.040613        -0.644806        -0.238040
 C         1.361006        -0.058133        -0.101235
 C         1.762738         1.115063        -0.994897
 C         3.178050         0.777825        -0.378706
 C         4.262997         0.601423        -1.437464
 O         3.430054        -0.631768        -1.820500
 C         2.803811        -0.665436        -0.513757
 O         2.945170         1.145714         1.098655
 C         1.755543         0.373044         1.346460
 H        -0.659921         0.299227        -0.170109
 H        -0.330040        -1.347205        -1.074241
 H        -0.368306        -1.228843         0.614099
 H         1.703636         1.023841        -2.054001
 H         1.554970         2.144900        -0.674521
 H         4.442486         1.260278        -2.315702
 H         5.225803         0.116846        -1.041849
 H         3.160150        -1.404234         0.142982
 H         2.089509        -0.567212         1.857413
 H         0.929118         0.913340         1.908790
