19
Iteration:  4911charge 0 multiplicity 1
 C        -0.065980        -0.755143        -0.272216
 C         1.281952        -0.036033        -0.104973
 C         1.685115         1.271146        -0.948552
 C         3.086969         0.834659        -0.396178
 C         4.224523         0.486718        -1.384206
 O         3.460604        -0.640037        -1.771902
 C         2.770125        -0.684203        -0.411763
 O         3.105320         1.109565         0.997471
 C         1.858309         0.414348         1.256929
 H        -0.876624         0.083254        -0.185219
 H         0.109300        -1.017876        -1.335575
 H        -0.215008        -1.613185         0.399920
 H         1.556858         1.322781        -2.082021
 H         1.251782         2.179105        -0.665444
 H         4.323340         1.209627        -2.115142
 H         5.153733         0.209157        -0.782495
 H         3.074786        -1.438132         0.272871
 H         2.086982        -0.420238         2.026256
 H         1.145068         1.014128         1.819014
