19
Iteration:  4606
 C         0.032376        -0.737465        -0.164851
 C         1.296918         0.026576        -0.161109
 C         1.834341         1.269262        -0.946308
 C         3.147525         0.804227        -0.355899
 C         4.173931         0.521905        -1.517000
 O         3.487331        -0.657766        -1.802826
 C         2.738762        -0.668864        -0.490569
 O         3.041208         1.021858         1.137732
 C         1.676137         0.469703         1.268358
 H        -0.882906        -0.131490        -0.219937
 H         0.095291        -1.397813        -1.039772
 H        -0.110699        -1.427348         0.623433
 H         1.780523         0.989679        -2.051480
 H         1.500749         2.339422        -0.690033
 H         4.100026         1.125859        -2.400406
 H         5.239649         0.417025        -1.124654
 H         3.022660        -1.604401         0.094195
 H         1.789432        -0.213043         2.092997
 H         0.966142         1.271043         1.600399
