19
Iteration:   660charge 0 multiplicity 1
 C         0.007188        -0.769033        -0.232821
 C         1.293286         0.008905        -0.133834
 C         1.668408         1.384607        -0.615811
 C         3.197510         0.706860        -0.267971
 C         4.153030         0.782985        -1.495877
 O         3.353159        -0.447567        -2.027872
 C         2.729512        -0.603917        -0.711839
 O         3.191752         0.742357         1.143450
 C         1.842355         0.207120         1.342286
 H        -0.834380        -0.049709         0.077734
 H        -0.276017        -0.947583        -1.328828
 H        -0.084897        -1.683018         0.402035
 H         1.442936         1.558594        -1.642955
 H         1.419475         2.178257         0.000605
 H         4.048765         1.689853        -2.143827
 H         5.144373         0.484879        -1.448629
 H         3.167803        -1.561673        -0.319536
 H         2.009870        -0.656970         1.939178
 H         1.306749         1.072851         1.833415
