19
Iteration:  4031
 C         0.018837        -0.778950        -0.246483
 C         1.288355        -0.005258        -0.087515
 C         1.879704         1.129179        -0.949162
 C         3.241507         0.789707        -0.322606
 C         4.231704         0.529724        -1.379270
 O         3.333351        -0.585404        -1.921042
 C         2.736519        -0.652683        -0.463102
 O         3.038597         1.086980         1.107637
 C         1.710753         0.528208         1.275368
 H        -0.875591        -0.229952        -0.111679
 H        -0.164754        -1.269335        -1.222829
 H        -0.082408        -1.575477         0.472764
 H         1.778646         1.045853        -2.010739
 H         1.517323         2.160702        -0.748716
 H         4.102959         1.249377        -2.260166
 H         5.211709         0.255667        -0.964771
 H         3.285445        -1.538936         0.039450
 H         1.821482        -0.335532         2.052422
 H         0.920423         1.157020         1.674221
