19
Iteration:  3513
 C        -0.019862        -0.674496        -0.228477
 C         1.313961        -0.064258        -0.124773
 C         1.818350         1.156490        -0.929950
 C         3.158179         0.716110        -0.372091
 C         4.255868         0.509738        -1.416542
 O         3.471197        -0.593899        -1.867199
 C         2.670548        -0.725729        -0.469244
 O         3.001854         1.235860         1.073782
 C         1.751538         0.396775         1.297679
 H        -0.843944         0.057456        -0.234351
 H        -0.086238        -1.420825        -0.992112
 H        -0.223425        -1.302674         0.646398
 H         1.678417         1.010163        -1.966543
 H         1.633835         2.223443        -0.667492
 H         4.213167         1.295040        -2.276452
 H         5.211872         0.195851        -1.036694
 H         3.128472        -1.541943         0.148210
 H         2.014684        -0.277940         2.084866
 H         1.075784         1.137103         1.738484
