19
Iteration:    56charge 0 multiplicity 1
 C        -0.069908        -0.710024        -0.204367
 C         1.362937        -0.148214        -0.111377
 C         1.669935         1.389297        -0.371704
 C         3.184356         0.744262        -0.250512
 C         4.112861         0.927720        -1.459229
 O         3.091847         0.132001        -2.244794
 C         2.664032        -0.499157        -0.843052
 O         3.396332         0.424688         1.153324
 C         2.026279        -0.273293         1.331007
 H        -0.376816        -1.573938         0.430305
 H        -0.719917         0.129372         0.091407
 H        -0.349758        -0.870172        -1.204653
 H         1.326877         1.716028        -1.344750
 H         1.304743         2.000142         0.453385
 H         4.255684         1.912931        -1.884857
 H         5.059313         0.432578        -1.314097
 H         3.300616        -1.359018        -0.756341
 H         2.210298        -1.336946         1.594781
 H         1.528697         0.296436         2.128293
