19
Iteration:   932charge 0 multiplicity 1
 C        -0.040973        -0.711587        -0.324420
 C         1.314308        -0.078441        -0.088684
 C         1.749792         1.344612        -0.731610
 C         3.081144         0.903483        -0.400484
 C         4.173123         0.487581        -1.360875
 O         3.380719        -0.530710        -1.913324
 C         2.675127        -0.618485        -0.605940
 O         3.121062         1.050794         1.049467
 C         1.914099         0.169173         1.344619
 H        -0.875318        -0.578943         0.427372
 H        -0.519237        -0.529693        -1.427843
 H         0.233062        -1.790776        -0.318002
 H         1.682394         1.273250        -1.833069
 H         1.517170         2.312043        -0.284097
 H         4.384371         1.209144        -2.117550
 H         5.065803         0.300355        -0.613363
 H         3.186308        -1.373505        -0.054482
 H         2.402306        -0.509756         2.015915
 H         1.246388         0.832930         1.861896
