19
Iteration:  1502charge 0 multiplicity 1
 C         0.025363        -0.706177        -0.233507
 C         1.346446        -0.098455        -0.167142
 C         1.670322         1.179333        -0.933695
 C         3.124952         0.790094        -0.369795
 C         4.298799         0.473066        -1.290571
 O         3.340953        -0.507293        -1.881445
 C         2.681376        -0.665953        -0.514260
 O         3.065370         1.188414         1.058280
 C         1.863697         0.344068         1.272204
 H        -0.250926        -0.865032        -1.304998
 H        -0.068017        -1.697743         0.235862
 H        -0.619721         0.001052         0.400210
 H         1.610103         1.274264        -2.036219
 H         1.364497         2.103509        -0.294265
 H         4.599121         1.065978        -2.071533
 H         5.260687         0.062982        -0.793128
 H         3.234740        -1.561709        -0.022958
 H         1.979779        -0.545551         1.916203
 H         1.008325         0.900277         1.808294
