19
Iteration:  1041charge 0 multiplicity 1
 C        -0.066190        -0.691343        -0.270436
 C         1.280350        -0.033202        -0.121941
 C         1.686242         1.311496        -0.879829
 C         3.098005         0.769466        -0.387949
 C         4.211136         0.605916        -1.375069
 O         3.418763        -0.603170        -1.859752
 C         2.769960        -0.624031        -0.549927
 O         3.093971         1.052834         1.026310
 C         1.902977         0.227813         1.353402
 H         0.099057        -1.792839        -0.271626
 H        -0.778148        -0.336923         0.580929
 H        -0.525442        -0.319837        -1.174180
 H         1.456062         1.147636        -1.950759
 H         1.427934         2.362608        -0.527488
 H         4.415065         1.395872        -1.968324
 H         5.130325         0.191442        -0.838996
 H         3.264190        -1.244262         0.157665
 H         2.093664        -0.753541         1.817999
 H         1.377711         0.781196         2.115615
