19
Iteration:   690charge 0 multiplicity 1
 C        -0.057117        -0.711778        -0.243353
 C         1.310997        -0.108822        -0.126362
 C         1.719487         1.252652        -0.813386
 C         3.178706         0.741139        -0.252775
 C         4.185761         0.642049        -1.324530
 O         3.220676        -0.249637        -2.084015
 C         2.726583        -0.662101        -0.676464
 O         3.177286         0.944299         1.125128
 C         1.969113         0.131673         1.378194
 H        -0.663292        -0.496706         0.637932
 H        -0.628962        -0.237419        -1.057793
 H        -0.130869        -1.718526        -0.336707
 H         1.623175         1.202700        -1.906328
 H         1.333975         2.205013        -0.383555
 H         4.568819         1.467586        -1.834032
 H         5.050474         0.027375        -0.945279
 H         3.245122        -1.574975        -0.349073
 H         2.280361        -0.740122         2.023556
 H         1.303482         0.759514         2.020965
