19
Iteration:  3081
 C         0.029996        -0.821331        -0.269033
 C         1.260629        -0.011207        -0.105614
 C         1.712518         1.294195        -0.864171
 C         3.118040         0.829768        -0.390389
 C         4.269634         0.415789        -1.310121
 O         3.435598        -0.690342        -1.794529
 C         2.633176        -0.510965        -0.489843
 O         3.106907         1.147195         0.918848
 C         1.791947         0.392498         1.304522
 H        -0.915477        -0.591178         0.133642
 H        -0.085433        -0.867694        -1.378421
 H         0.440610        -1.819196         0.018039
 H         1.519235         1.470799        -1.936533
 H         1.458000         2.355308        -0.604139
 H         4.483685         1.015089        -2.151939
 H         5.137296        -0.039806        -0.857274
 H         3.173997        -1.099144         0.291565
 H         2.014653        -0.490669         2.025956
 H         1.054168         1.114045         1.794189
