19
Iteration:   856
 C        -0.040251        -0.752821        -0.179156
 C         1.313130         0.000006        -0.187956
 C         1.718909         1.318816        -0.795350
 C         3.168135         0.807751        -0.332370
 C         4.278807         0.631497        -1.476144
 O         3.423766        -0.443958        -1.917152
 C         2.624000        -0.622242        -0.629125
 O         3.095697         0.852328         1.103869
 C         1.858930         0.248438         1.338824
 H        -0.707568        -0.361711        -0.937042
 H         0.145676        -1.845484        -0.350894
 H        -0.599197        -0.624499         0.675779
 H         1.469703         1.246465        -1.852238
 H         1.287244         2.136974        -0.268640
 H         4.391549         1.556948        -2.025332
 H         5.257919         0.171101        -1.119793
 H         2.930818        -1.546039        -0.166726
 H         1.948157        -0.451749         2.158163
 H         1.262430         1.026318         1.859384
