19
Iteration:  2348
 C        -0.052703        -0.804212        -0.265882
 C         1.374281        -0.065307        -0.164183
 C         1.814721         1.286473        -0.945505
 C         3.139597         0.885137        -0.317309
 C         4.195713         0.466879        -1.439223
 O         3.430515        -0.700639        -1.780837
 C         2.718830        -0.616800        -0.506768
 O         3.068486         1.097529         1.079747
 C         1.782648         0.445907         1.357311
 H        -0.892960        -0.186210         0.225397
 H        -0.101278        -0.856357        -1.396931
 H        -0.018913        -1.856507         0.141099
 H         1.611281         1.153019        -2.086694
 H         1.467936         2.389823        -0.557122
 H         3.943222         1.253418        -2.333682
 H         5.293698         0.530593        -1.380062
 H         2.900578        -1.515841         0.163953
 H         1.903195        -0.205324         2.165047
 H         0.991947         1.181560         1.492483
