19
Iteration:  3143
 C        -0.047271        -0.676031        -0.177299
 C         1.302793        -0.075401        -0.143113
 C         1.808594         1.152501        -0.922356
 C         3.165371         0.739275        -0.292497
 C         4.225822         0.642745        -1.497700
 O         3.447790        -0.657407        -1.795508
 C         2.820326        -0.739839        -0.523963
 O         3.048493         1.125699         1.062175
 C         1.663521         0.511331         1.294838
 H        -1.022465        -0.074651        -0.351898
 H        -0.031687        -1.256931        -1.119011
 H        -0.302457        -1.242182         0.779181
 H         2.005241         0.869293        -2.015162
 H         1.548685         2.130892        -0.613905
 H         4.047445         1.355073        -2.315484
 H         5.356999         0.306495        -1.285826
 H         3.254869        -1.589579         0.020847
 H         1.843674        -0.323344         1.947871
 H         0.845881         1.098025         1.666667
