19
Iteration:   850
 C        -0.020499        -0.773511        -0.187327
 C         1.247713        -0.022651        -0.180407
 C         1.700995         1.319366        -0.802755
 C         3.191897         0.826274        -0.322476
 C         4.220942         0.583870        -1.423402
 O         3.411200        -0.426897        -1.902771
 C         2.642914        -0.560214        -0.633994
 O         3.153473         0.879469         1.057963
 C         1.855599         0.198633         1.351770
 H        -0.573542        -0.399815        -1.093619
 H         0.194154        -1.827664        -0.226441
 H        -0.758245        -0.427827         0.693837
 H         1.693126         1.311056        -1.917653
 H         1.299646         2.312153        -0.407535
 H         4.502812         1.427921        -2.179453
 H         5.128659         0.226406        -0.965879
 H         2.951606        -1.533493        -0.118193
 H         1.975059        -0.733063         2.038302
 H         1.234118         0.962158         1.902718
