19
Iteration:  4649charge 0 multiplicity 1
 C         0.069401        -0.704203        -0.425406
 C         1.374885        -0.100366        -0.063628
 C         1.733276         1.139378        -0.881019
 C         3.099285         0.842748        -0.366815
 C         4.171140         0.450197        -1.349769
 O         3.292013        -0.606108        -1.753719
 C         2.694813        -0.724625        -0.479489
 O         3.131646         1.264151         0.983178
 C         1.846696         0.437432         1.344123
 H        -0.770545        -0.102005        -0.047853
 H         0.008225        -0.972420        -1.485339
 H        -0.054207        -1.659578         0.002085
 H         1.593208         1.049355        -2.021574
 H         1.385006         2.180827        -0.491342
 H         4.556635         1.053296        -2.145272
 H         5.035667        -0.037911        -0.707113
 H         3.259791        -1.454812         0.189950
 H         1.943579        -0.422283         1.889805
 H         1.141734         1.176932         1.642905
