19
Iteration:  4770
 C         0.083643        -0.692079        -0.344355
 C         1.338539        -0.069647        -0.172893
 C         1.811140         1.145986        -0.879976
 C         3.138442         0.831614        -0.333293
 C         4.207658         0.460518        -1.336761
 O         3.293971        -0.611509        -1.778720
 C         2.724758        -0.728387        -0.454082
 O         3.002262         1.286005         0.971788
 C         1.862784         0.373119         1.304590
 H        -0.594949         0.191783        -0.155332
 H        -0.126277        -1.265902        -1.254017
 H        -0.174494        -1.301844         0.518346
 H         1.830290         1.085113        -2.123787
 H         1.175434         2.027999        -0.598311
 H         4.330671         1.232960        -2.115823
 H         5.136275         0.009627        -0.818903
 H         2.957468        -1.794379        -0.008713
 H         2.291021        -0.437876         2.016239
 H         1.181626         1.034363         1.881842
