19
Iteration:  1993
 C        -0.043254        -0.788011        -0.297608
 C         1.357873        -0.106491        -0.138816
 C         1.786449         1.229034        -0.874960
 C         3.178849         0.785003        -0.360700
 C         4.272923         0.472061        -1.417882
 O         3.331504        -0.588477        -1.858744
 C         2.730418        -0.648864        -0.478863
 O         3.060332         1.201074         1.131251
 C         1.780232         0.453815         1.281866
 H        -0.804488        -0.030915        -0.403641
 H         0.057273        -1.500742        -1.123746
 H        -0.266283        -1.337897         0.643021
 H         1.710141         1.186702        -2.021588
 H         1.231233         2.252006        -0.469238
 H         4.590824         1.181251        -2.314721
 H         5.248365        -0.001895        -1.128143
 H         3.118780        -1.551270         0.100159
 H         1.964331        -0.327735         2.017976
 H         0.872338         0.996126         1.616895
