19
Iteration:  1372
 C         0.020931        -0.777667        -0.204228
 C         1.327679        -0.042611        -0.232028
 C         1.786450         1.301259        -0.828081
 C         3.104797         0.817925        -0.342800
 C         4.205559         0.520717        -1.346777
 O         3.441514        -0.572619        -1.920748
 C         2.635468        -0.685528        -0.580316
 O         3.081065         1.057556         1.052427
 C         1.800970         0.409581         1.366179
 H        -0.098053        -1.524847        -0.953983
 H        -0.126871        -1.261325         0.754669
 H        -0.832960        -0.222334        -0.440381
 H         1.766820         1.268536        -1.945106
 H         1.365507         2.390474        -0.526651
 H         4.252231         1.272637        -2.111111
 H         5.207332         0.201200        -0.881717
 H         3.145255        -1.508686        -0.082943
 H         1.942591        -0.594558         1.868407
 H         1.189740         1.117739         2.054260
