19
Iteration:  4482charge 0 multiplicity 1
 C         0.072331        -0.806181        -0.273572
 C         1.366980        -0.019236        -0.034771
 C         1.814224         1.195912        -0.899776
 C         3.195739         0.724965        -0.337489
 C         4.173527         0.496059        -1.500288
 O         3.430699        -0.627924        -1.834737
 C         2.710585        -0.621884        -0.464435
 O         3.009431         1.054202         1.084761
 C         1.659387         0.598521         1.311855
 H        -0.863883        -0.380495         0.145175
 H        -0.141988        -0.808221        -1.362441
 H         0.092801        -1.845300         0.142642
 H         1.942771         1.093183        -2.015018
 H         1.584958         2.333372        -0.659379
 H         4.064137         1.266783        -2.337849
 H         5.270958         0.367950        -1.316425
 H         3.158051        -1.511657         0.075963
 H         1.766445        -0.126983         2.089132
 H         0.924352         1.389593         1.457650
