19
Iteration:  2034charge 0 multiplicity 1
 C         0.031587        -0.772507        -0.255235
 C         1.331373        -0.043219        -0.094164
 C         1.739086         1.191034        -0.955153
 C         3.182859         0.799430        -0.305039
 C         4.310828         0.570225        -1.464287
 O         3.377099        -0.588354        -1.871208
 C         2.663867        -0.743066        -0.472281
 O         3.085053         1.063417         1.131617
 C         1.754731         0.528806         1.291389
 H        -0.911089        -0.153677        -0.588114
 H         0.042526        -1.436472        -1.101301
 H        -0.271090        -1.396257         0.582275
 H         1.561480         0.884430        -2.007809
 H         1.366529         2.197872        -0.740530
 H         4.151140         1.381147        -2.117498
 H         5.366711         0.356649        -1.082081
 H         3.095456        -1.572412         0.176700
 H         1.665219        -0.195607         2.090479
 H         1.125279         1.384467         1.513274
