19
Iteration:  3444charge 0 multiplicity 1
 C        -0.038779        -0.734889        -0.282260
 C         1.330755        -0.071983        -0.160558
 C         1.807741         1.171727        -0.939438
 C         3.107052         0.760024        -0.349617
 C         4.255392         0.456573        -1.320180
 O         3.394117        -0.601125        -1.861142
 C         2.717675        -0.739453        -0.459957
 O         3.098338         1.304093         0.971610
 C         1.761939         0.466969         1.385474
 H        -0.821705        -0.366815         0.474656
 H        -0.533060        -0.819277        -1.308086
 H        -0.005080        -1.847896        -0.060688
 H         1.738199         0.997347        -2.073476
 H         1.499128         2.114215        -0.587767
 H         4.484085         1.166381        -2.104381
 H         5.045305         0.033257        -0.716155
 H         3.256306        -1.577498         0.074026
 H         1.970228        -0.321259         2.083320
 H         0.942325         1.096287         1.795971
