19
Iteration:  4274charge 0 multiplicity 1
 C        -0.079539        -0.739582        -0.210767
 C         1.280786        -0.159289        -0.153235
 C         1.753619         1.145595        -0.923498
 C         3.139655         0.713297        -0.311597
 C         4.280385         0.621250        -1.330725
 O         3.464646        -0.599665        -1.891376
 C         2.761746        -0.719754        -0.533890
 O         3.079742         1.110049         1.049135
 C         1.722467         0.581836         1.298812
 H        -0.746356         0.081566         0.038984
 H        -0.358764        -1.044124        -1.204403
 H        -0.316537        -1.613809         0.503048
 H         1.637808         0.891328        -2.066392
 H         1.459576         2.123647        -0.508155
 H         4.414689         1.319581        -2.158261
 H         5.252330         0.438428        -0.818511
 H         3.277668        -1.700537        -0.160971
 H         1.896471        -0.103404         2.157494
 H         1.219431         1.537695         1.501073
