19
Iteration:  2241charge 0 multiplicity 1
 C        -0.090009        -0.680607        -0.155771
 C         1.286691        -0.101726        -0.153787
 C         1.731705         1.217270        -0.998132
 C         3.147149         0.790117        -0.291945
 C         4.196906         0.595055        -1.407132
 O         3.539361        -0.644359        -1.864855
 C         2.773532        -0.682699        -0.520381
 O         3.119120         1.059804         1.080513
 C         1.758825         0.455286         1.283575
 H        -0.943300         0.107872        -0.263858
 H        -0.326651        -1.367301        -0.953600
 H        -0.064834        -1.219740         0.776928
 H         1.690297         1.011446        -2.114498
 H         1.147765         2.132462        -0.718833
 H         4.161659         1.416814        -2.084591
 H         5.133723         0.241165        -1.004936
 H         3.073379        -1.478993         0.123197
 H         1.686651        -0.436191         1.988873
 H         1.013895         1.250212         1.553646
