19
Iteration:  3106
 C         0.018977        -0.789000        -0.358128
 C         1.367054        -0.104941        -0.135616
 C         1.681716         1.207599        -0.889139
 C         3.123497         0.830612        -0.331565
 C         4.257434         0.442759        -1.346623
 O         3.322411        -0.627872        -1.830964
 C         2.738843        -0.685910        -0.523227
 O         3.081231         1.198356         1.056326
 C         1.827092         0.552921         1.360742
 H        -0.810824        -0.119857        -0.092701
 H        -0.035311        -1.137594        -1.415713
 H         0.052249        -1.709376         0.183578
 H         1.597959         1.173864        -1.971819
 H         1.160236         2.239953        -0.706566
 H         4.674978         0.945195        -2.272911
 H         5.033906        -0.017489        -0.861757
 H         3.201729        -1.445533         0.134576
 H         2.181845        -0.264828         2.019241
 H         1.060780         1.184687         1.893822
