19
Iteration:  3044
 C        -0.022458        -0.695605        -0.166383
 C         1.338199        -0.088921        -0.197400
 C         1.814347         1.175831        -0.969709
 C         3.175735         0.756087        -0.267143
 C         4.211298         0.529808        -1.407999
 O         3.426209        -0.606960        -1.831946
 C         2.719191        -0.674680        -0.531891
 O         3.065600         1.150964         1.084433
 C         1.678554         0.443419         1.231879
 H        -0.738789        -0.180474         0.566891
 H        -0.426102        -0.863144        -1.177045
 H         0.029021        -1.773141         0.182405
 H         1.925480         0.851946        -1.984785
 H         1.365942         2.033847        -0.597323
 H         4.209633         1.384043        -2.129871
 H         5.357995         0.346390        -1.162199
 H         3.207185        -1.364762         0.156286
 H         1.995902        -0.239679         2.012735
 H         0.980376         1.170850         1.626060
