19
Iteration:  3701
 C         0.011212        -0.806192        -0.283482
 C         1.373448        -0.015724        -0.159022
 C         1.827202         1.254219        -0.900152
 C         3.191311         0.876065        -0.335528
 C         4.166129         0.561775        -1.535922
 O         3.432547        -0.746071        -1.827860
 C         2.712804        -0.595010        -0.427735
 O         3.039436         1.055943         1.136997
 C         1.710642         0.480074         1.285176
 H        -0.851674         0.016519        -0.277388
 H        -0.030076        -1.649396        -1.033785
 H         0.001908        -1.374645         0.676127
 H         1.774253         1.136176        -2.030004
 H         1.454275         2.208048        -0.609330
 H         4.155739         1.318328        -2.369712
 H         5.087784         0.430412        -1.046736
 H         3.039394        -1.449551         0.219940
 H         1.687615        -0.393336         1.960772
 H         0.974090         1.154494         1.676226
