19
Iteration:  4620charge 0 multiplicity 1
 C        -0.022183        -0.806053        -0.354333
 C         1.304508        -0.040576        -0.134433
 C         1.775101         1.223339        -0.887749
 C         3.179597         0.779054        -0.356191
 C         4.240069         0.574078        -1.489067
 O         3.416813        -0.723045        -1.754007
 C         2.664794        -0.619120        -0.526164
 O         3.109595         1.097966         1.087950
 C         1.761003         0.534214         1.398823
 H        -0.875625        -0.131443        -0.255562
 H        -0.138231        -1.403773        -1.272751
 H        -0.020614        -1.499106         0.581085
 H         1.707078         1.228885        -2.020013
 H         1.467114         2.151392        -0.571896
 H         4.251479         1.352212        -2.320671
 H         5.224203         0.271902        -1.314989
 H         3.075679        -1.325331         0.195448
 H         1.691224        -0.424091         2.028357
 H         1.117856         1.457868         1.633363
