19
Iteration:  3357charge 0 multiplicity 1
 C        -0.135895        -0.754456        -0.137183
 C         1.317556        -0.066517        -0.177253
 C         1.769338         1.196346        -0.981588
 C         3.114636         0.765376        -0.350185
 C         4.215774         0.538939        -1.302017
 O         3.528014        -0.654612        -1.868011
 C         2.652648        -0.667763        -0.477422
 O         3.130067         1.106922         1.036827
 C         1.800144         0.528500         1.236335
 H        -0.904241        -0.001200        -0.387438
 H        -0.109791        -1.345545        -1.060635
 H        -0.264479        -1.290890         0.786141
 H         1.804385         1.133395        -2.098489
 H         1.451048         2.123970        -0.535713
 H         4.345092         1.415894        -2.065603
 H         5.224852         0.253326        -0.907709
 H         2.966769        -1.582433         0.103196
 H         1.846758        -0.284525         1.951126
 H         1.059766         1.273483         1.614424
