19
Iteration:  4805charge 0 multiplicity 1
 C        -0.012937        -0.780147        -0.383585
 C         1.240405         0.040455        -0.045265
 C         1.748814         1.208647        -0.862562
 C         3.171440         0.850504        -0.400480
 C         4.220607         0.447228        -1.484440
 O         3.435272        -0.665928        -1.795401
 C         2.783282        -0.641087        -0.427340
 O         3.092909         1.107709         1.011811
 C         1.722109         0.479345         1.378160
 H        -0.919328        -0.245518        -0.177209
 H        -0.127919        -1.126898        -1.395125
 H         0.024075        -1.648491         0.352339
 H         1.740837         1.054222        -2.042396
 H         1.260078         2.188416        -0.554082
 H         4.460068         1.121009        -2.427194
 H         5.211952         0.202798        -1.053325
 H         3.118714        -1.326644         0.426016
 H         1.936009        -0.390943         2.031698
 H         1.115111         1.265813         1.914465
