19
Iteration:  1789charge 0 multiplicity 1
 C         0.036417        -0.648497        -0.177593
 C         1.309875        -0.035364        -0.133666
 C         1.698995         1.134122        -0.914668
 C         3.236901         0.708884        -0.353527
 C         4.279621         0.552204        -1.377446
 O         3.441044        -0.584010        -1.847189
 C         2.745046        -0.699874        -0.561452
 O         3.012011         1.064564         1.051645
 C         1.702034         0.490395         1.296471
 H        -0.714205         0.111335         0.039047
 H        -0.098598        -1.274271        -1.125655
 H        -0.190646        -1.313388         0.713781
 H         1.758928         0.972657        -1.983807
 H         1.299036         2.076458        -0.670339
 H         4.289927         1.281643        -2.081223
 H         5.382250         0.367766        -1.107730
 H         3.123132        -1.655565        -0.132046
 H         1.592756        -0.162762         2.134359
 H         0.958820         1.302696         1.435279
