19
Iteration:   617
 C        -0.057587        -0.692921        -0.302021
 C         1.314145        -0.061144        -0.042409
 C         1.715328         1.340742        -0.687069
 C         3.201521         0.749226        -0.294320
 C         4.203142         0.718504        -1.482620
 O         3.232236        -0.327382        -2.047772
 C         2.718755        -0.599447        -0.674943
 O         3.187026         0.863170         1.149018
 C         1.954134         0.036239         1.396428
 H        -0.846216        -0.265187        -0.982001
 H         0.163641        -1.735092        -0.727599
 H        -0.710216        -0.899014         0.639023
 H         1.490984         1.380529        -1.735312
 H         1.403035         2.208232        -0.194966
 H         4.093468         1.714026        -2.058951
 H         5.245012         0.441663        -1.401926
 H         3.112803        -1.504251        -0.158974
 H         2.182430        -0.956025         1.731903
 H         1.319687         0.572094         2.140936
