19
Iteration:  2008charge 0 multiplicity 1
 C         0.032904        -0.784245        -0.270400
 C         1.383109        -0.114051        -0.125501
 C         1.845503         1.183866        -0.931623
 C         3.193992         0.805586        -0.235484
 C         4.178579         0.492583        -1.410451
 O         3.271000        -0.537392        -1.874471
 C         2.801649        -0.742622        -0.496619
 O         3.077827         1.139571         1.058460
 C         1.709353         0.511345         1.284471
 H        -0.705420        -0.100619        -0.666936
 H        -0.113260        -1.499075        -1.111839
 H        -0.386273        -1.301722         0.604552
 H         1.733420         1.152321        -1.974385
 H         1.580651         2.085603        -0.523652
 H         4.211957         1.368530        -2.046587
 H         4.992215         0.138082        -0.853527
 H         3.291409        -1.521445         0.030198
 H         1.688113        -0.208481         2.157780
 H         1.140100         1.443123         1.498695
