19
Iteration:  1358
 C        -0.066968        -0.785022        -0.169970
 C         1.275739        -0.010264        -0.093616
 C         1.749227         1.277575        -0.932913
 C         3.193538         0.762073        -0.321073
 C         4.252674         0.628710        -1.473983
 O         3.445370        -0.601020        -1.861072
 C         2.716143        -0.609327        -0.626981
 O         3.096994         0.993140         1.160024
 C         1.779225         0.382570         1.267555
 H         0.117648        -1.564123        -0.917540
 H        -0.296521        -1.246067         0.733910
 H        -0.865456        -0.071299        -0.394118
 H         1.638126         1.276476        -2.034768
 H         1.396208         2.173167        -0.397068
 H         4.364567         1.375876        -2.214693
 H         5.240992         0.238902        -1.108995
 H         2.869530        -1.526410        -0.005259
 H         1.864147        -0.380151         2.083167
 H         0.957095         1.112706         1.515418
