19
Iteration:   668
 C        -0.019633        -0.749098        -0.248037
 C         1.274250        -0.079532        -0.037339
 C         1.722282         1.313862        -0.622974
 C         3.198117         0.740944        -0.300454
 C         4.180861         0.761241        -1.514483
 O         3.365306        -0.377425        -2.025689
 C         2.672340        -0.611136        -0.724743
 O         3.191362         0.785846         1.119634
 C         1.844719         0.231502         1.340245
 H        -0.793771        -0.232294         0.308073
 H        -0.320440        -0.811836        -1.302390
 H        -0.054358        -1.680559         0.161866
 H         1.554757         1.404037        -1.707277
 H         1.457995         2.262430        -0.093770
 H         4.244316         1.642448        -2.051310
 H         5.188179         0.389662        -1.311614
 H         2.929491        -1.592305        -0.318344
 H         1.960089        -0.694453         1.979060
 H         1.210489         0.902367         1.951968
