19
Iteration:  3820
 C        -0.072693        -0.714404        -0.219149
 C         1.319761        -0.109524        -0.156583
 C         1.719650         1.129971        -0.997089
 C         3.122260         0.717776        -0.320570
 C         4.206740         0.636260        -1.378597
 O         3.472087        -0.623083        -1.764554
 C         2.751756        -0.645998        -0.505126
 O         3.154718         1.053534         1.036812
 C         1.742942         0.544149         1.274588
 H        -0.857541        -0.097926         0.264547
 H        -0.279846        -0.818814        -1.282615
 H        -0.041586        -1.708395         0.177194
 H         1.873761         1.035585        -2.082046
 H         1.182897         1.989529        -0.636872
 H         4.124058         1.234538        -2.384806
 H         5.135413         0.421826        -0.849615
 H         3.232168        -1.453623         0.155797
 H         1.679666        -0.234739         2.090846
 H         1.197769         1.462305         1.653961
