19
Iteration:  2173charge 0 multiplicity 1
 C         0.002912        -0.809138        -0.293744
 C         1.296866         0.024814        -0.166530
 C         1.752131         1.238090        -0.886263
 C         3.178349         0.815443        -0.359805
 C         4.283908         0.485815        -1.462348
 O         3.354896        -0.627340        -1.760002
 C         2.686477        -0.602828        -0.420834
 O         3.044310         1.134019         1.017907
 C         1.801891         0.392740         1.309076
 H        -0.951986        -0.299401        -0.092216
 H         0.020596        -1.159817        -1.315914
 H         0.207401        -1.623245         0.361145
 H         1.701037         1.080631        -1.998774
 H         1.572773         2.381534        -0.568552
 H         4.474701         1.231440        -2.291718
 H         5.142081        -0.049384        -1.010542
 H         2.930188        -1.475422         0.170084
 H         2.115916        -0.412064         2.023256
 H         1.119191         1.104439         1.794354
