19
Iteration:  1778charge 0 multiplicity 1
 C        -0.069969        -0.700903        -0.143909
 C         1.384522        -0.085177        -0.146748
 C         1.692919         1.219846        -0.990387
 C         3.146704         0.837783        -0.285297
 C         4.231189         0.494734        -1.347482
 O         3.476653        -0.612426        -1.857286
 C         2.743371        -0.671188        -0.599701
 O         3.108815         1.051736         1.104818
 C         1.725788         0.490366         1.229564
 H        -0.856905        -0.017236        -0.464603
 H        -0.064128        -1.466179        -0.992600
 H        -0.199563        -1.241744         0.824377
 H         1.540723         1.175527        -2.072218
 H         1.255323         2.112360        -0.573557
 H         4.325400         1.141167        -2.129700
 H         5.271212         0.190294        -0.929308
 H         3.013295        -1.537737         0.042751
 H         1.834233        -0.235554         2.007662
 H         1.019410         1.244269         1.564838
