19
Iteration:  4567charge 0 multiplicity 1
 C        -0.141387        -0.709340        -0.172045
 C         1.362455        -0.139460        -0.132596
 C         1.746249         1.140376        -0.969119
 C         3.140724         0.814026        -0.354886
 C         4.265487         0.473690        -1.307500
 O         3.467188        -0.493894        -1.832439
 C         2.696846        -0.732334        -0.518810
 O         3.056736         1.192248         0.982164
 C         1.847582         0.435613         1.271036
 H        -0.848854         0.101111         0.027074
 H        -0.341304        -1.075352        -1.181515
 H        -0.167650        -1.423190         0.726359
 H         1.749805         1.043959        -2.071383
 H         1.294933         2.052156        -0.688230
 H         4.757156         1.176123        -2.083664
 H         5.029617         0.084489        -0.666837
 H         3.055949        -1.654388        -0.151757
 H         1.893402        -0.390348         2.063981
 H         0.937012         0.947981         1.664057
