19
Iteration:  1738
 C         0.022002        -0.773976        -0.229599
 C         1.283978         0.016876        -0.112770
 C         1.741173         1.283614        -0.939401
 C         3.164633         0.800153        -0.355740
 C         4.236544         0.441252        -1.353921
 O         3.410983        -0.621703        -1.810188
 C         2.664508        -0.695768        -0.536316
 O         3.043457         1.222643         1.060740
 C         1.859176         0.364687         1.289022
 H        -0.619560        -0.117668        -0.887246
 H         0.225652        -1.612562        -0.816608
 H        -0.637963        -1.008115         0.518356
 H         1.574871         1.090261        -2.033613
 H         1.241482         2.300118        -0.624543
 H         4.622304         1.287164        -2.068521
 H         5.114208        -0.065661        -1.002636
 H         3.083079        -1.584350        -0.113877
 H         2.089234        -0.611318         1.831536
 H         1.125515         0.892680         1.887817
