19
Iteration:  3963charge 0 multiplicity 1
 C        -0.021303        -0.661404        -0.220385
 C         1.329410        -0.090129        -0.098558
 C         1.795726         1.155097        -1.000589
 C         3.127403         0.833125        -0.343970
 C         4.325427         0.504998        -1.364958
 O         3.425696        -0.640134        -1.848692
 C         2.750815        -0.636453        -0.511906
 O         2.952175         1.206645         1.057543
 C         1.805101         0.364046         1.320002
 H        -0.798286        -0.274476         0.404371
 H        -0.423591        -0.604582        -1.234348
 H         0.009266        -1.673627         0.004312
 H         1.686785         0.888258        -2.155541
 H         1.472725         2.156928        -0.724856
 H         4.176168         1.318205        -2.155989
 H         5.247116         0.114857        -0.971202
 H         2.898063        -1.572379         0.124739
 H         2.011805        -0.581513         1.914636
 H         1.079203         0.958825         1.927698
