19
Iteration:  3058
 C         0.017238        -0.806927        -0.208113
 C         1.307852        -0.002546        -0.224288
 C         1.770218         1.256431        -0.970944
 C         3.157452         0.849417        -0.341885
 C         4.187702         0.530417        -1.387107
 O         3.439815        -0.691866        -1.816126
 C         2.690181        -0.658037        -0.450297
 O         3.087794         1.163985         1.101716
 C         1.802918         0.409373         1.276611
 H        -0.617926        -0.223629         0.420966
 H        -0.482195        -0.808098        -1.188234
 H         0.273978        -1.847409         0.137958
 H         1.675527         1.385471        -2.086498
 H         1.393871         2.247133        -0.724273
 H         4.348906         1.153843        -2.197296
 H         5.105590         0.127630        -0.910697
 H         2.774441        -1.682994        -0.029455
 H         1.664861        -0.530323         1.911055
 H         0.978546         1.110137         1.602904
