19
Iteration:  1081charge 0 multiplicity 1
 C        -0.001586        -0.767884        -0.294607
 C         1.340951        -0.050947        -0.185477
 C         1.777112         1.284943        -0.851889
 C         3.122040         0.749964        -0.319147
 C         4.139238         0.540204        -1.350301
 O         3.355034        -0.572826        -1.944641
 C         2.739982        -0.663818        -0.564539
 O         3.102003         1.055326         1.102707
 C         1.823638         0.427149         1.368713
 H        -0.004380        -1.812622        -0.519126
 H        -0.373459        -0.769938         0.662357
 H        -0.794073        -0.315984        -0.923746
 H         1.650435         1.395112        -1.942081
 H         1.619034         2.242875        -0.310905
 H         4.354931         1.499769        -2.014367
 H         5.118089         0.115899        -1.148816
 H         3.358449        -1.391532         0.031534
 H         2.203766        -0.454696         1.955014
 H         1.009919         0.955396         1.874616
