19
Iteration:     6charge 0 multiplicity 1
 C        -0.000177        -0.721338        -0.226520
 C         1.357309        -0.112490        -0.069501
 C         1.737558         1.383758        -0.304538
 C         3.165897         0.743714        -0.235424
 C         4.032037         0.939060        -1.454524
 O         3.083040         0.120781        -2.180144
 C         2.600933        -0.487231        -0.901476
 O         3.342466         0.431525         1.119555
 C         2.064218        -0.319025         1.272685
 H        -0.649850        -0.220330         0.519604
 H        -0.498229        -0.383564        -1.163973
 H        -0.022013        -1.835394        -0.292823
 H         1.610641         1.948686        -1.260876
 H         1.693228         2.128234         0.542331
 H         4.173729         2.045431        -1.701639
 H         5.085960         0.578540        -1.443281
 H         3.166278        -1.443789        -0.875875
 H         2.422706        -1.368798         1.362979
 H         1.465325         0.017341         2.136756
