19
Iteration:  1338charge 0 multiplicity 1
 C        -0.099742        -0.700834        -0.206959
 C         1.345218        -0.095210        -0.186743
 C         1.793752         1.179042        -0.883606
 C         3.174111         0.784390        -0.319179
 C         4.179346         0.614565        -1.454922
 O         3.418551        -0.522286        -1.871722
 C         2.801481        -0.662998        -0.494029
 O         3.146034         0.940306         1.089543
 C         1.662335         0.437903         1.289359
 H        -0.195121        -1.493522        -0.917604
 H        -0.301688        -1.108708         0.752135
 H        -0.759700         0.112316        -0.298881
 H         1.869360         1.033050        -2.001183
 H         1.105481         2.132850        -0.521038
 H         4.157747         1.382381        -2.178090
 H         5.324389         0.491592        -1.341515
 H         3.385652        -1.374915         0.123335
 H         1.847336        -0.403121         2.022295
 H         1.013447         1.272029         1.777584
