19
Iteration:   793charge 0 multiplicity 1
 C        -0.063821        -0.713602        -0.304558
 C         1.332136        -0.123882        -0.049138
 C         1.792807         1.233572        -0.706316
 C         3.268027         0.788787        -0.302335
 C         4.220224         0.653206        -1.485945
 O         3.232503        -0.389798        -2.035490
 C         2.752727        -0.684489        -0.626207
 O         3.121246         1.001844         1.166718
 C         1.820554         0.219774         1.373990
 H         0.115776        -1.624840        -0.890822
 H        -0.671470        -0.971342         0.563564
 H        -0.693057         0.051139        -0.913372
 H         1.483508         1.186089        -1.759099
 H         1.473022         2.178633        -0.315561
 H         4.417537         1.617675        -2.120616
 H         5.104204         0.130486        -1.290355
 H         3.295311        -1.613773        -0.202449
 H         2.067176        -0.714332         2.011308
 H         1.030090         0.910865         1.855152
