19
Iteration:  1631charge 0 multiplicity 1
 C        -0.093237        -0.736023        -0.172869
 C         1.319645        -0.124117        -0.229210
 C         1.696547         1.248013        -0.935227
 C         3.165793         0.847907        -0.314463
 C         4.309163         0.462493        -1.306718
 O         3.335402        -0.529423        -1.853219
 C         2.770660        -0.634075        -0.576785
 O         3.063538         1.151246         1.060155
 C         1.847138         0.319322         1.294474
 H        -0.129541        -1.473781        -1.029096
 H        -0.204252        -1.191154         0.833132
 H        -0.839470         0.160456        -0.376998
 H         1.685667         1.246134        -1.997712
 H         1.281993         2.161097        -0.600303
 H         4.613472         1.074751        -2.243751
 H         5.165299        -0.047910        -0.768869
 H         3.268293        -1.454388        -0.016385
 H         2.250423        -0.558433         1.850427
 H         1.087240         0.957647         1.757258
