19
Iteration:  1328
 C        -0.032667        -0.659768        -0.233906
 C         1.375102        -0.151566        -0.127301
 C         1.819044         1.147223        -0.957030
 C         3.116435         0.766361        -0.297316
 C         4.116939         0.660988        -1.420125
 O         3.401069        -0.551615        -1.874506
 C         2.792115        -0.691789        -0.562103
 O         3.097138         0.998973         1.107248
 C         1.797648         0.440812         1.320718
 H        -0.301276        -1.285706        -1.074649
 H        -0.306404        -1.166027         0.723875
 H        -0.662279         0.192327        -0.378222
 H         1.817126         1.307657        -2.076470
 H         1.222488         2.138363        -0.457763
 H         4.099005         1.437046        -2.173774
 H         5.064670         0.228876        -0.908944
 H         3.214155        -1.493367         0.065369
 H         1.932256        -0.372919         2.106445
 H         0.894208         1.123425         1.604354
