19
Iteration:  1473charge 0 multiplicity 1
 C        -0.079801        -0.778420        -0.209026
 C         1.254030         0.000953        -0.101855
 C         1.728825         1.251971        -0.956758
 C         3.114340         0.811611        -0.350217
 C         4.253194         0.609474        -1.385937
 O         3.467584        -0.694083        -1.911756
 C         2.776654        -0.621071        -0.548223
 O         3.108205         1.035568         1.135215
 C         1.770016         0.431955         1.311326
 H        -0.535876        -0.562746        -1.141765
 H        -0.089597        -1.887509        -0.186319
 H        -0.747968        -0.484132         0.544566
 H         1.920560         1.109078        -2.035868
 H         1.458807         2.270601        -0.503225
 H         4.299710         1.320224        -2.322782
 H         5.231594         0.395206        -1.014896
 H         3.175659        -1.426876         0.038921
 H         1.833359        -0.492515         1.958402
 H         1.190457         1.234673         1.807116
