19
Iteration:  4502
 C         0.018229        -0.779515        -0.292745
 C         1.352475        -0.015279        -0.232009
 C         1.823376         1.261108        -0.931617
 C         3.195304         0.808212        -0.309412
 C         4.174286         0.600248        -1.505817
 O         3.362484        -0.760920        -1.734691
 C         2.781080        -0.690183        -0.455382
 O         3.098657         1.142831         1.151643
 C         1.668872         0.454791         1.249414
 H        -0.780560        -0.510078         0.379154
 H        -0.614163        -0.870018        -1.154929
 H         0.284156        -1.775666         0.170030
 H         1.723316         1.350339        -2.092453
 H         1.377483         2.207124        -0.544699
 H         4.099547         1.400690        -2.386378
 H         5.213864         0.304269        -1.360702
 H         3.054535        -1.428338         0.282976
 H         1.771682        -0.348172         2.029351
 H         1.086808         1.303606         1.573087
