19
Iteration:   487charge 0 multiplicity 1
 C         0.016597        -0.647509        -0.353617
 C         1.366630        -0.141391        -0.006066
 C         1.653466         1.209900        -0.621272
 C         3.168477         0.821565        -0.282005
 C         4.180114         0.641721        -1.414147
 O         3.119893        -0.114007        -2.131873
 C         2.700421        -0.601161        -0.631067
 O         3.264561         0.854106         1.098027
 C         1.972185        -0.034828         1.399600
 H        -0.276229        -1.494689         0.245425
 H        -0.700041         0.158879        -0.286342
 H         0.021306        -0.910784        -1.480352
 H         1.101623         1.201821        -1.578011
 H         1.259270         2.124581        -0.054022
 H         4.524841         1.589943        -2.051640
 H         5.071768         0.004924        -1.207125
 H         3.299609        -1.465148        -0.320725
 H         2.248905        -1.071737         1.796626
 H         1.355379         0.470507         2.207095
