19
Iteration:  4094charge 0 multiplicity 1
 C        -0.129197        -0.737068        -0.248712
 C         1.237773         0.032529        -0.058613
 C         1.646503         1.219473        -0.985536
 C         3.097687         0.865329        -0.417204
 C         4.298742         0.500975        -1.315620
 O         3.578054        -0.671940        -1.795923
 C         2.655419        -0.579223        -0.539774
 O         3.104271         1.031847         0.962676
 C         1.853383         0.365331         1.384407
 H        -0.920342        -0.011268        -0.110372
 H        -0.031549        -1.106461        -1.290378
 H        -0.177760        -1.572114         0.377357
 H         1.624101         1.274366        -2.137689
 H         1.241385         2.176919        -0.625864
 H         4.375177         1.082581        -2.252422
 H         5.222306         0.535411        -0.858370
 H         3.094934        -1.177068         0.276316
 H         2.162415        -0.521139         1.830851
 H         1.325170         0.968581         2.124195
