19
Iteration:  1863
 C        -0.017893        -0.805905        -0.321756
 C         1.255548        -0.053138        -0.115290
 C         1.759886         1.367094        -0.863681
 C         3.144109         0.873262        -0.375803
 C         4.218181         0.469256        -1.332642
 O         3.435587        -0.741966        -1.783323
 C         2.717923        -0.628983        -0.545589
 O         3.083308         1.151178         0.969294
 C         1.790482         0.440617         1.358009
 H        -0.656463        -0.891741         0.558723
 H        -0.721527        -0.502439        -1.204053
 H         0.323212        -1.873700        -0.631224
 H         1.651658         1.129607        -1.927256
 H         1.447891         2.369107        -0.638383
 H         4.638063         1.061089        -2.309635
 H         4.998173        -0.084569        -0.816356
 H         3.206088        -1.144598         0.315998
 H         2.085739        -0.374939         2.098389
 H         1.059500         1.240647         1.769425
