19
Iteration:  2105
 C        -0.123917        -0.733628        -0.193599
 C         1.272204        -0.061344        -0.091796
 C         1.828928         1.125627        -0.988373
 C         3.176925         0.758561        -0.357431
 C         4.287615         0.589486        -1.290562
 O         3.410914        -0.631403        -1.902918
 C         2.766623        -0.632083        -0.509760
 O         3.019210         1.218061         1.040900
 C         1.825873         0.378238         1.299548
 H        -0.831920        -0.394607         0.529728
 H        -0.667136        -0.509511        -1.153194
 H        -0.164736        -1.845257        -0.059412
 H         1.848136         0.863748        -2.069056
 H         1.367927         2.294175        -0.800500
 H         4.643163         1.240341        -2.235165
 H         5.057383         0.095619        -0.723879
 H         3.181989        -1.526817         0.010448
 H         1.951198        -0.386497         2.064248
 H         1.077161         1.108825         1.642256
