19
Iteration:  2023charge 0 multiplicity 1
 C         0.064776        -0.760889        -0.289507
 C         1.373367        -0.072436        -0.109818
 C         1.802007         1.121665        -0.910858
 C         3.185914         0.692589        -0.357852
 C         4.219418         0.622442        -1.365024
 O         3.301593        -0.561635        -1.862283
 C         2.716475        -0.674602        -0.467010
 O         3.082747         1.059358         1.098292
 C         1.699306         0.582487         1.290540
 H        -0.771868         0.035380        -0.532700
 H         0.244602        -1.535375        -1.010818
 H        -0.182653        -1.218404         0.666398
 H         1.840549         0.953780        -2.014938
 H         1.323170         2.081894        -0.643902
 H         4.321739         1.319893        -2.182568
 H         5.216355         0.077628        -1.331275
 H         3.144525        -1.610293         0.003498
 H         1.803088        -0.101326         2.118802
 H         0.928558         1.319012         1.501142
