19
Iteration:  1657
 C        -0.032205        -0.751785        -0.163250
 C         1.273251        -0.033991        -0.136387
 C         1.761135         1.294436        -0.903422
 C         3.128599         0.788979        -0.374752
 C         4.268786         0.560635        -1.345699
 O         3.480715        -0.608904        -1.896792
 C         2.671761        -0.692126        -0.529467
 O         3.071035         1.042752         1.029702
 C         1.757617         0.428080         1.295839
 H        -0.149944        -1.084456        -1.189011
 H         0.061337        -1.678924         0.527106
 H        -0.809738        -0.050490         0.225611
 H         1.628462         1.179185        -2.010066
 H         1.463620         2.328103        -0.576240
 H         4.339393         1.205791        -2.175880
 H         5.325657         0.286673        -0.827044
 H         3.116927        -1.597814        -0.015523
 H         1.975752        -0.405700         1.918640
 H         1.027581         1.165024         1.708242
