19
Iteration:   526
 C        -0.037304        -0.737831        -0.254844
 C         1.289750         0.003698        -0.115170
 C         1.760907         1.404714        -0.606576
 C         3.190689         0.702719        -0.294304
 C         4.042917         0.851210        -1.516607
 O         3.372867        -0.346329        -2.054080
 C         2.643998        -0.628982        -0.672524
 O         3.250385         0.723144         1.147637
 C         1.883695         0.058968         1.331507
 H         0.153304        -1.854811        -0.453946
 H        -0.405719        -0.747213         0.808220
 H        -0.732877        -0.370979        -0.953279
 H         1.669192         1.750766        -1.627656
 H         1.565419         2.107182         0.170532
 H         3.799816         1.721506        -2.026546
 H         5.125654         0.775722        -1.449220
 H         2.986812        -1.668030        -0.418871
 H         1.969291        -0.916418         1.802690
 H         1.360095         0.736848         2.017566
