19
Iteration:   508charge 0 multiplicity 1
 C        -0.087337        -0.689573        -0.301904
 C         1.376769        -0.153145        -0.154322
 C         1.703006         1.317027        -0.530248
 C         3.123388         0.815668        -0.274010
 C         4.098610         0.749078        -1.477157
 O         3.228022        -0.297107        -2.059415
 C         2.721859        -0.581949        -0.767562
 O         3.260001         0.772892         1.154110
 C         2.002678         0.058228         1.387185
 H        -0.049253        -1.791808        -0.242099
 H        -0.820979        -0.273068         0.403489
 H        -0.336285        -0.372025        -1.355580
 H         1.568580         1.465979        -1.595930
 H         1.338117         2.182556         0.021124
 H         4.257583         1.708151        -2.162731
 H         5.103708         0.346908        -1.156485
 H         3.118362        -1.421446        -0.211582
 H         2.228239        -0.823850         1.994028
 H         1.271386         0.600431         2.032056
