19
Iteration:  2013charge 0 multiplicity 1
 C         0.062945        -0.777044        -0.277294
 C         1.371212        -0.101889        -0.118297
 C         1.859023         1.124592        -0.933255
 C         3.186654         0.752453        -0.223244
 C         4.143825         0.542726        -1.416088
 O         3.268137        -0.547669        -1.862598
 C         2.803068        -0.688733        -0.508155
 O         3.079937         1.100653         1.033838
 C         1.695892         0.546011         1.299779
 H        -0.727381         0.012254        -0.625335
 H         0.043127        -1.530173        -1.064285
 H        -0.334711        -1.235994         0.639030
 H         1.793830         1.171430        -2.064140
 H         1.465494         2.150313        -0.478219
 H         4.415717         1.452530        -2.028062
 H         5.083496         0.098821        -0.872096
 H         3.223896        -1.603059         0.047795
 H         1.673434        -0.130817         2.132481
 H         1.075717         1.407885         1.521625
