19
Iteration:  1275charge 0 multiplicity 1
 C         0.008950        -0.786389        -0.304483
 C         1.363972        -0.036670        -0.155573
 C         1.748247         1.365004        -0.876560
 C         3.124369         0.888582        -0.386009
 C         4.257293         0.483204        -1.294908
 O         3.309421        -0.640596        -1.861912
 C         2.680525        -0.624183        -0.549243
 O         3.089674         1.119324         1.076152
 C         1.889920         0.315928         1.318011
 H        -0.587748        -0.656507        -1.236024
 H         0.112233        -1.959477        -0.084989
 H        -0.800596        -0.483823         0.445032
 H         1.701843         1.063185        -1.922427
 H         1.109817         2.265446        -0.777578
 H         4.541642         1.217425        -2.137757
 H         5.245950         0.141745        -0.830004
 H         3.042598        -1.363099         0.168143
 H         2.151112        -0.506124         1.972740
 H         0.973848         0.782198         1.789567
