19
Iteration:   927charge 0 multiplicity 1
 C        -0.043373        -0.658712        -0.332118
 C         1.342360        -0.082125        -0.062602
 C         1.736551         1.315167        -0.775070
 C         3.109743         0.885549        -0.362690
 C         4.155803         0.524708        -1.355042
 O         3.385248        -0.524263        -1.948386
 C         2.695713        -0.622496        -0.592961
 O         3.124843         1.052696         1.050344
 C         1.899061         0.183381         1.360592
 H        -0.858932        -0.470745         0.353956
 H        -0.341291        -0.651131        -1.348862
 H         0.209964        -1.776411        -0.207896
 H         1.604373         1.091811        -1.859181
 H         1.339911         2.302845        -0.375060
 H         4.378848         1.295510        -2.161601
 H         5.025633         0.108025        -0.835724
 H         3.169161        -1.483527        -0.028861
 H         2.203361        -0.663689         2.076888
 H         1.111920         0.674329         2.019658
