19
Iteration:  3111charge 0 multiplicity 1
 C         0.014633        -0.753789        -0.345316
 C         1.341236        -0.130679        -0.175650
 C         1.701761         1.178319        -0.915501
 C         3.133038         0.806362        -0.295179
 C         4.220506         0.456444        -1.346329
 O         3.303860        -0.605366        -1.819951
 C         2.751619        -0.673360        -0.519257
 O         3.056952         1.197136         1.045741
 C         1.873388         0.560723         1.371973
 H        -0.778834        -0.014555        -0.099838
 H         0.074978        -1.199756        -1.344232
 H         0.066172        -1.726053         0.245230
 H         1.821565         1.071557        -2.024080
 H         1.271651         2.077721        -0.575618
 H         4.529493         1.054415        -2.206333
 H         5.242669        -0.087212        -0.985743
 H         3.258389        -1.392574         0.141649
 H         2.044370        -0.274637         2.063362
 H         1.009972         1.121623         1.708855
