19
Iteration:   471
 C         0.014387        -0.727412        -0.326133
 C         1.362955        -0.114291        -0.060017
 C         1.750009         1.307389        -0.607831
 C         3.157552         0.725685        -0.286963
 C         4.144950         0.679102        -1.433705
 O         3.109077        -0.114426        -2.088539
 C         2.669368        -0.616042        -0.762159
 O         3.143069         0.841819         1.170241
 C         2.088354         0.020941         1.420658
 H        -0.463778        -1.252137         0.581409
 H        -0.761748         0.012362        -0.669943
 H         0.011335        -1.478304        -1.089049
 H         1.773697         1.528937        -1.663831
 H         1.402089         2.150339        -0.068082
 H         4.474758         1.520509        -1.995389
 H         4.979538        -0.012107        -1.133241
 H         3.179974        -1.592057        -0.599905
 H         2.458754        -0.908635         1.757376
 H         1.406642         0.518453         2.075961
