19
Iteration:   791
 C        -0.070478        -0.702261        -0.307366
 C         1.345999        -0.117981        -0.061028
 C         1.783807         1.225959        -0.718060
 C         3.257313         0.770239        -0.293410
 C         4.209661         0.687523        -1.478592
 O         3.222481        -0.408540        -2.049337
 C         2.773043        -0.661900        -0.611998
 O         3.124456         0.988829         1.170905
 C         1.831366         0.223581         1.375812
 H         0.092606        -1.631704        -0.846896
 H        -0.721487        -0.960435         0.557801
 H        -0.662362        -0.071861        -0.903649
 H         1.593609         1.220988        -1.800213
 H         1.496622         2.153518        -0.284631
 H         4.394358         1.593911        -2.126300
 H         5.112632         0.099831        -1.255381
 H         3.271256        -1.606450        -0.227838
 H         1.992006        -0.701894         2.072428
 H         1.065000         0.941606         1.835845
