19
Iteration:   522charge 0 multiplicity 1
 C        -0.039876        -0.723406        -0.269012
 C         1.285018        -0.016950        -0.146641
 C         1.768379         1.380897        -0.587788
 C         3.175932         0.745599        -0.284077
 C         4.034018         0.812762        -1.491798
 O         3.358423        -0.327446        -2.065700
 C         2.656809        -0.648767        -0.666539
 O         3.232749         0.722231         1.149898
 C         1.950184         0.075760         1.354461
 H         0.104674        -1.756779        -0.397923
 H        -0.536889        -0.677840         0.697155
 H        -0.783567        -0.426965        -1.076440
 H         1.565780         1.719304        -1.673276
 H         1.497582         2.156632         0.269232
 H         3.794006         1.725572        -2.109554
 H         5.119099         0.646284        -1.449403
 H         3.155560        -1.598366        -0.415012
 H         2.089533        -1.014639         1.816920
 H         1.329375         0.816907         1.913965
