19
Iteration:  1971charge 0 multiplicity 1
 C        -0.002107        -0.732344        -0.259412
 C         1.312392         0.034053        -0.117578
 C         1.716720         1.304931        -0.938119
 C         3.127005         0.870808        -0.406966
 C         4.228546         0.451087        -1.295588
 O         3.453049        -0.665777        -1.803501
 C         2.712430        -0.647061        -0.516694
 O         3.023763         1.133262         0.996764
 C         1.814976         0.308699         1.331971
 H        -0.825025        -0.091580        -0.063175
 H         0.025462        -1.162099        -1.254511
 H        -0.033517        -1.552499         0.479907
 H         1.536811         1.044162        -2.027290
 H         1.362770         2.410596        -0.691152
 H         4.353285         1.049532        -2.271226
 H         5.201615         0.250579        -1.036174
 H         3.202370        -1.424030         0.127034
 H         2.083324        -0.623148         1.845671
 H         1.296036         0.960262         2.057940
