19
Iteration:  4594charge 0 multiplicity 1
 C        -0.012435        -0.732926        -0.123967
 C         1.368193        -0.018197        -0.156242
 C         1.791911         1.244502        -0.993469
 C         3.208048         0.762432        -0.280324
 C         4.197802         0.589413        -1.407677
 O         3.434664        -0.704146        -1.851875
 C         2.754157        -0.636118        -0.483830
 O         3.026525         1.047171         1.065565
 C         1.700000         0.466107         1.215680
 H        -0.840385         0.008161        -0.140785
 H        -0.192116        -1.346605        -1.009081
 H        -0.009126        -1.217799         0.800917
 H         1.834565         1.224068        -2.107490
 H         1.217491         2.259932        -0.677053
 H         4.249128         1.453913        -2.007866
 H         5.273854         0.169611        -1.201398
 H         3.235981        -1.444381         0.185205
 H         1.599103        -0.440621         1.750423
 H         0.918245         1.157778         1.576912
