19
Iteration:   917
 C         0.003946        -0.673753        -0.306801
 C         1.344356        -0.035058        -0.077455
 C         1.693368         1.228182        -0.832690
 C         3.146399         0.794249        -0.294545
 C         4.205481         0.610578        -1.397126
 O         3.339241        -0.516530        -1.960056
 C         2.725349        -0.630520        -0.588360
 O         3.113750         1.036796         1.096532
 C         1.867989         0.221876         1.392556
 H        -0.797035        -0.079099         0.203964
 H        -0.191089        -0.560484        -1.390396
 H        -0.100617        -1.782092         0.027225
 H         1.478839         1.104860        -1.929273
 H         1.188323         2.204150        -0.514757
 H         4.495187         1.397854        -2.098146
 H         5.132858         0.096902        -1.101487
 H         3.129894        -1.510894        -0.052219
 H         2.147379        -0.802820         1.750450
 H         1.180834         0.844780         2.005718
