19
Iteration:  2574
 C        -0.091470        -0.765353        -0.146599
 C         1.251682        -0.033027        -0.160620
 C         1.747442         1.225635        -0.981537
 C         3.161572         0.767781        -0.361933
 C         4.272079         0.619278        -1.362699
 O         3.487814        -0.619638        -1.824539
 C         2.782811        -0.676453        -0.453886
 O         3.091652         1.006394         1.038864
 C         1.735557         0.496035         1.209666
 H        -0.810308         0.055384        -0.149270
 H        -0.124052        -1.464512        -1.031036
 H        -0.475258        -1.263647         0.802392
 H         1.721527         1.266173        -2.154497
 H         1.375750         2.216767        -0.480212
 H         4.225035         1.295201        -2.183468
 H         5.268573         0.052671        -1.152895
 H         3.238669        -1.412724         0.228272
 H         1.802219        -0.289465         1.974221
 H         0.950735         1.166387         1.637226
