19
Iteration:  2101charge 0 multiplicity 1
 C        -0.128513        -0.731701        -0.208768
 C         1.273163        -0.060169        -0.092446
 C         1.815459         1.146730        -0.968295
 C         3.162720         0.779745        -0.367714
 C         4.313138         0.580714        -1.301759
 O         3.424247        -0.640941        -1.905365
 C         2.743912        -0.643760        -0.532090
 O         3.002038         1.238786         1.054162
 C         1.835082         0.357275         1.302735
 H        -0.795620        -0.231564         0.540015
 H        -0.681840        -0.474688        -1.114988
 H         0.010225        -1.825023        -0.014133
 H         1.868730         0.822515        -2.009159
 H         1.342381         2.068571        -0.836918
 H         4.535168         1.091685        -2.152057
 H         5.065281         0.089732        -0.675058
 H         3.229041        -1.518151         0.002817
 H         2.008527        -0.434645         2.029636
 H         1.172111         1.126643         1.696962
