19
Iteration:  3784
 C        -0.002004        -0.739809        -0.130579
 C         1.262286         0.010238        -0.158964
 C         1.760345         1.267735        -0.915521
 C         3.113677         0.817108        -0.417588
 C         4.263485         0.504886        -1.411906
 O         3.546761        -0.732935        -1.759666
 C         2.731563        -0.639003        -0.561050
 O         2.959237         1.167480         0.997522
 C         1.738508         0.344908         1.280804
 H        -0.742354        -0.309681         0.499782
 H        -0.455850        -0.683467        -1.094540
 H         0.040267        -1.762180         0.252695
 H         1.819117         1.403737        -1.965068
 H         1.556175         2.364572        -0.458434
 H         4.523487         1.137117        -2.342620
 H         5.307820         0.436998        -0.926253
 H         3.213531        -1.293262         0.202027
 H         1.954699        -0.650566         1.718846
 H         1.024653         1.028693         1.912322
