19
Iteration:  4127
 C        -0.032102        -0.703696        -0.180484
 C         1.398140        -0.109596        -0.209828
 C         1.822023         1.207099        -0.928368
 C         3.131761         0.805056        -0.281038
 C         4.224538         0.545270        -1.315214
 O         3.415545        -0.657033        -1.834176
 C         2.712038        -0.676610        -0.543240
 O         3.057599         1.168293         1.015132
 C         1.725619         0.405400         1.249686
 H        -0.790944        -0.129257         0.357869
 H        -0.415968        -0.695981        -1.239250
 H        -0.086839        -1.707964         0.148270
 H         1.713572         1.245434        -2.060641
 H         1.406861         2.089452        -0.407221
 H         4.185484         1.123332        -2.255653
 H         5.166303         0.320558        -0.929551
 H         3.158167        -1.437385         0.113929
 H         1.956462        -0.346160         1.933551
 H         1.109640         1.102064         1.773751
