19
Iteration:  1847
 C         0.068383        -0.760434        -0.310957
 C         1.346165         0.046440        -0.067286
 C         1.683717         1.277491        -0.935373
 C         3.083708         0.831615        -0.459129
 C         4.250441         0.410044        -1.348126
 O         3.440883        -0.730513        -1.806744
 C         2.702611        -0.604632        -0.445681
 O         3.030911         1.147241         1.018756
 C         1.808410         0.406941         1.317041
 H        -0.707904        -0.629906         0.463814
 H        -0.385792        -0.268423        -1.093578
 H         0.283403        -1.742716        -0.542033
 H         1.460745         1.323377        -2.021154
 H         1.404484         2.287000        -0.408205
 H         4.467891         1.088475        -2.142925
 H         5.096956         0.286045        -0.673640
 H         3.153710        -1.434842         0.067694
 H         1.967854        -0.480044         1.938221
 H         1.142569         1.032458         1.842779
