19
Iteration:  4387
 C        -0.103646        -0.717201        -0.199245
 C         1.276161        -0.160993        -0.198667
 C         1.738649         1.173463        -0.952611
 C         3.170309         0.803013        -0.286416
 C         4.227535         0.721121        -1.378794
 O         3.457989        -0.681652        -1.763269
 C         2.785316        -0.714981        -0.459537
 O         3.143334         1.065314         1.022639
 C         1.723642         0.472619         1.177867
 H        -0.814710         0.167148        -0.100155
 H        -0.397494        -1.160640        -1.202026
 H        -0.081081        -1.298640         0.682498
 H         1.783303         1.144741        -1.971049
 H         1.100212         2.033760        -0.664725
 H         4.214197         1.487562        -2.089156
 H         5.296107         0.429734        -1.082143
 H         3.091907        -1.587537         0.179372
 H         1.949580        -0.289133         1.971465
 H         1.180935         1.421806         1.525822
