19
Iteration:  1630
 C        -0.093246        -0.736574        -0.175051
 C         1.324615        -0.127160        -0.218627
 C         1.701060         1.252722        -0.937280
 C         3.160471         0.856484        -0.322210
 C         4.311909         0.453866        -1.300866
 O         3.332525        -0.527696        -1.860426
 C         2.771086        -0.648365        -0.574792
 O         3.060274         1.151366         1.069423
 C         1.847638         0.323225         1.292131
 H        -0.136544        -1.467396        -1.031667
 H        -0.193358        -1.156306         0.816545
 H        -0.803409         0.144109        -0.397949
 H         1.691337         1.241982        -2.018276
 H         1.246683         2.178309        -0.618293
 H         4.598582         1.087041        -2.247833
 H         5.144937        -0.000058        -0.779019
 H         3.249213        -1.465078        -0.034156
 H         2.285044        -0.557392         1.861610
 H         1.100884         0.950986         1.775145
