19
Iteration:   775charge 0 multiplicity 1
 C        -0.007194        -0.723651        -0.302325
 C         1.374250        -0.117842        -0.171617
 C         1.805978         1.249266        -0.782580
 C         3.131732         0.792172        -0.243495
 C         4.090214         0.725651        -1.413296
 O         3.245351        -0.422710        -1.977250
 C         2.736373        -0.682390        -0.644457
 O         3.206584         0.815545         1.160327
 C         1.852453         0.320891         1.368333
 H        -0.021987        -1.815648        -0.462722
 H        -0.454636        -0.436787         0.657563
 H        -0.487500        -0.100084        -1.149619
 H         1.770056         1.343739        -1.889086
 H         1.267018         2.149503        -0.326012
 H         4.010975         1.576338        -2.085573
 H         5.195968         0.524589        -1.234067
 H         3.235897        -1.464329        -0.083323
 H         1.978512        -0.511817         2.012946
 H         1.223778         1.091966         1.734302
