19
Iteration:  1254charge 0 multiplicity 1
 C         0.061574        -0.841183        -0.216482
 C         1.308284         0.078590        -0.198473
 C         1.742160         1.267351        -0.907962
 C         3.151378         0.784171        -0.376872
 C         4.215118         0.473611        -1.378888
 O         3.388030        -0.546379        -1.845142
 C         2.709942        -0.639816        -0.502813
 O         3.111844         1.034167         1.092259
 C         1.748538         0.424750         1.271824
 H        -0.570991        -0.479042        -1.065018
 H         0.433472        -1.986546        -0.295121
 H        -0.745657        -0.700838         0.586630
 H         1.501315         1.333268        -1.938446
 H         1.561554         2.155964        -0.415554
 H         4.396497         1.294953        -2.181240
 H         5.188635         0.166685        -0.956077
 H         2.884559        -1.473234         0.184179
 H         1.700958        -0.474906         1.868587
 H         1.164616         1.211997         1.802595
