19
Iteration:  1148charge 0 multiplicity 1
 C        -0.012533        -0.741487        -0.240213
 C         1.327314        -0.097250        -0.096528
 C         1.722100         1.321427        -0.872153
 C         3.140895         0.791344        -0.373893
 C         4.261360         0.565549        -1.337977
 O         3.404060        -0.580405        -1.815107
 C         2.664903        -0.632800        -0.629234
 O         3.098865         1.057932         1.011117
 C         1.829762         0.307794         1.298511
 H        -0.065322        -1.630621        -0.822471
 H        -0.306210        -1.046930         0.687076
 H        -0.746564        -0.019787        -0.591447
 H         1.285698         1.369110        -1.897037
 H         1.536235         2.289558        -0.282169
 H         4.272104         1.298761        -2.219749
 H         5.333135         0.355052        -0.994297
 H         2.942785        -1.427376         0.103186
 H         2.122033        -0.566556         1.977082
 H         1.130673         0.981964         1.748337
