19
Iteration:  4792
 C        -0.002754        -0.754338        -0.356977
 C         1.291348        -0.007163        -0.082166
 C         1.755914         1.225485        -0.943406
 C         3.135176         0.808327        -0.363726
 C         4.226925         0.443349        -1.416782
 O         3.339340        -0.710688        -1.806343
 C         2.779726        -0.613827        -0.425760
 O         3.047155         1.256469         1.076802
 C         1.831933         0.395512         1.341936
 H        -0.881781        -0.067794        -0.340536
 H         0.235053        -1.122341        -1.361559
 H        -0.197670        -1.672295         0.201533
 H         1.469147         1.147550        -2.113170
 H         1.543217         2.261396        -0.580336
 H         4.343032         1.121397        -2.267179
 H         5.163245         0.022175        -0.934005
 H         3.373028        -1.409399         0.071244
 H         2.127064        -0.596924         1.852506
 H         1.171860         1.041349         1.943351
