19
Iteration:  2831
 C        -0.015706        -0.751781        -0.194528
 C         1.327064        -0.102890        -0.122688
 C         1.738462         1.188621        -0.912176
 C         3.138218         0.754791        -0.379155
 C         4.236427         0.593791        -1.284175
 O         3.406876        -0.596471        -1.902256
 C         2.762393        -0.704394        -0.554699
 O         3.092532         1.129977         1.030981
 C         1.754956         0.482469         1.264743
 H        -0.832826        -0.016669         0.147743
 H        -0.231490        -1.149111        -1.225210
 H        -0.214250        -1.627917         0.460018
 H         1.636332         0.921314        -1.996380
 H         1.486219         2.165921        -0.557685
 H         4.699630         1.427737        -2.000733
 H         5.026550         0.156406        -0.628646
 H         3.139965        -1.499724         0.114278
 H         1.854729        -0.168356         2.118766
 H         0.900045         1.148117         1.524464
