19
Iteration:  2070charge 0 multiplicity 1
 C        -0.032790        -0.705280        -0.211386
 C         1.343105        -0.046944        -0.175982
 C         1.680917         1.262631        -0.943784
 C         3.131011         0.798774        -0.375824
 C         4.246837         0.555558        -1.312659
 O         3.438767        -0.692509        -1.758699
 C         2.727328        -0.645661        -0.484523
 O         3.023963         1.167198         0.979614
 C         1.853419         0.302692         1.218444
 H        -0.615428         0.046821         0.275479
 H        -0.207718        -0.930025        -1.299634
 H        -0.021396        -1.653796         0.399936
 H         1.464321         1.296337        -2.052534
 H         1.259406         2.281987        -0.354433
 H         4.572078         1.188845        -2.236880
 H         5.218743         0.364902        -0.784341
 H         3.084389        -1.508569         0.218556
 H         2.038326        -0.525442         1.871418
 H         1.158903         1.001485         1.683472
