19
Iteration:  3279charge 0 multiplicity 1
 C        -0.014325        -0.801207        -0.291167
 C         1.259038         0.044275        -0.090422
 C         1.721262         1.289448        -0.976834
 C         3.104726         0.733828        -0.352080
 C         4.222679         0.528576        -1.468738
 O         3.557242        -0.714816        -1.823380
 C         2.577558        -0.662717        -0.350958
 O         3.108317         1.082455         1.034327
 C         1.804314         0.528394         1.321934
 H        -0.801280        -0.251853         0.209903
 H        -0.043917        -0.882185        -1.407408
 H         0.119112        -1.845052         0.080637
 H         1.732283         1.056672        -1.990216
 H         1.309730         2.285867        -0.659734
 H         4.208697         1.207885        -2.379413
 H         5.265261         0.368521        -0.961184
 H         3.157615        -1.360331         0.279970
 H         1.795912        -0.332135         2.002366
 H         1.260487         1.360110         1.781452
