19
Iteration:  4508
 C        -0.009606        -0.784432        -0.286746
 C         1.389489        -0.031440        -0.231036
 C         1.760416         1.261075        -0.940737
 C         3.201823         0.780532        -0.321296
 C         4.159598         0.567233        -1.451843
 O         3.368754        -0.753752        -1.727438
 C         2.744735        -0.607367        -0.464341
 O         3.118802         1.160933         1.133385
 C         1.709715         0.439808         1.227445
 H        -0.707587        -0.363050         0.512848
 H        -0.561883        -0.915923        -1.259031
 H         0.159156        -1.801425         0.056375
 H         1.944728         1.328759        -1.969042
 H         1.400519         2.208365        -0.503973
 H         4.049994         1.222719        -2.237810
 H         5.226809         0.358867        -1.295400
 H         3.141642        -1.364274         0.271539
 H         1.931452        -0.430678         1.862150
 H         0.897149         1.155778         1.525043
