19
Iteration:  4428charge 0 multiplicity 1
 C        -0.024338        -0.725876        -0.179775
 C         1.334817         0.019858        -0.141510
 C         1.697812         1.208926        -0.938094
 C         3.151211         0.791816        -0.373738
 C         4.339193         0.527205        -1.287223
 O         3.416403        -0.703687        -1.890064
 C         2.752893        -0.581784        -0.536836
 O         2.945536         1.246675         0.997762
 C         1.835195         0.287085         1.336437
 H        -0.924132        -0.107527        -0.386477
 H        -0.110018        -1.400395        -1.058973
 H        -0.260930        -1.312816         0.739852
 H         1.657156         1.044909        -2.066800
 H         1.423543         2.324378        -0.720990
 H         4.693437         1.152796        -2.093728
 H         5.174836         0.093389        -0.685687
 H         3.101582        -1.534099         0.040559
 H         2.128953        -0.625827         1.859202
 H         1.035090         0.778516         1.925347
