19
Iteration:   277charge 0 multiplicity 1
 C        -0.079043        -0.628720        -0.199734
 C         1.347746        -0.123829        -0.066138
 C         1.805691         1.254103        -0.530574
 C         3.194443         0.747358        -0.262006
 C         4.109864         0.837968        -1.495576
 O         3.086143        -0.025910        -2.123470
 C         2.785822        -0.593888        -0.796090
 O         3.248864         0.699181         1.180895
 C         1.967849        -0.184829         1.294136
 H        -0.132797        -1.749236        -0.022014
 H        -0.725177        -0.164644         0.571948
 H        -0.518129        -0.376551        -1.096923
 H         1.605718         1.357271        -1.591447
 H         1.579181         2.220653        -0.030165
 H         4.387481         1.780426        -2.021800
 H         4.951727         0.305007        -1.278636
 H         3.330435        -1.496374        -0.592385
 H         2.124288        -1.232336         1.657627
 H         1.201067         0.311510         1.982438
