19
Iteration:  3452charge 0 multiplicity 1
 C        -0.059187        -0.750748        -0.226488
 C         1.301425        -0.114551        -0.140022
 C         1.764829         1.231828        -0.952009
 C         3.137969         0.831577        -0.342541
 C         4.256205         0.503044        -1.303601
 O         3.428347        -0.669384        -1.870065
 C         2.733250        -0.724020        -0.516470
 O         3.076235         1.201577         0.949687
 C         1.736675         0.489073         1.370336
 H        -0.806571        -0.257976         0.409534
 H        -0.378771        -0.634320        -1.295506
 H         0.262363        -1.749855         0.130756
 H         1.895640         1.046913        -2.020945
 H         1.315649         2.236757        -0.667383
 H         4.629559         1.143130        -2.020581
 H         5.150480         0.117674        -0.720888
 H         3.106462        -1.519771         0.115741
 H         1.927614        -0.338021         2.123670
 H         1.122210         1.267338         1.825076
