19
Iteration:  2130
 C         0.044199        -0.717849        -0.242616
 C         1.330911        -0.068868        -0.172541
 C         1.762017         1.180035        -0.917942
 C         3.159269         0.730742        -0.324583
 C         4.235093         0.544585        -1.362139
 O         3.407520        -0.577198        -1.804205
 C         2.705436        -0.714025        -0.495948
 O         3.074962         1.098857         1.056697
 C         1.746208         0.519021         1.230013
 H        -0.525527        -0.410542         0.717783
 H        -0.603328        -0.637056        -1.114385
 H         0.082051        -1.777923        -0.030446
 H         1.766635         1.081054        -2.015115
 H         1.064824         2.008067        -0.575953
 H         4.286300         1.135018        -2.339641
 H         5.306630         0.286210        -0.997337
 H         3.138412        -1.523863         0.013647
 H         1.613918        -0.198545         2.127927
 H         1.111303         1.428046         1.433831
