19
Iteration:  4336charge 0 multiplicity 1
 C         0.012270        -0.837490        -0.301939
 C         1.315591        -0.043287        -0.140614
 C         1.792380         1.233864        -0.913136
 C         3.186824         0.766363        -0.362134
 C         4.252104         0.420138        -1.379789
 O         3.315543        -0.607204        -1.807222
 C         2.759272        -0.664506        -0.495885
 O         3.021419         1.298903         1.073442
 C         1.785626         0.427026         1.295332
 H        -0.882128        -0.466080         0.192342
 H        -0.188108        -0.784094        -1.380127
 H         0.246489        -1.862106        -0.004889
 H         1.561308         1.275016        -1.993390
 H         1.581560         2.219947        -0.516464
 H         4.509856         1.115232        -2.264164
 H         5.122976         0.084793        -0.816656
 H         3.063917        -1.448263         0.149297
 H         2.017325        -0.425257         1.954108
 H         1.076857         1.026164         1.830189
