19
Iteration:  4661
 C         0.058550        -0.719637        -0.374627
 C         1.375079        -0.070258        -0.092798
 C         1.744839         1.145604        -0.917654
 C         3.173741         0.811195        -0.365375
 C         4.293095         0.445525        -1.332395
 O         3.252876        -0.659460        -1.846395
 C         2.732547        -0.605496        -0.463898
 O         3.007998         1.240417         0.988942
 C         1.821569         0.434313         1.405895
 H        -0.739331        -0.095589         0.037893
 H        -0.129099        -0.624767        -1.445568
 H         0.014445        -1.694539         0.048830
 H         1.556529         0.865380        -2.051185
 H         1.180938         2.069830        -0.613197
 H         4.652092         1.144457        -2.090423
 H         5.169984        -0.114073        -0.836994
 H         3.117862        -1.526957         0.082936
 H         2.310589        -0.123723         2.131171
 H         1.047557         0.935216         1.975344
