19
Iteration:  2722
 C        -0.042042        -0.665509        -0.227075
 C         1.348752        -0.119057        -0.088840
 C         1.760541         1.112290        -0.989036
 C         3.145405         0.826163        -0.376535
 C         4.293746         0.546480        -1.304065
 O         3.412905        -0.549795        -1.847004
 C         2.729179        -0.762632        -0.460809
 O         3.006844         1.120403         1.017399
 C         1.796561         0.450617         1.273232
 H        -0.800897        -0.111826         0.444442
 H        -0.353503        -0.530492        -1.275903
 H        -0.128154        -1.670732         0.202000
 H         1.541267         1.068908        -2.060875
 H         1.408725         2.049098        -0.775949
 H         4.434313         1.349819        -2.119233
 H         5.253519         0.364682        -0.914383
 H         3.161535        -1.585172         0.153233
 H         2.123015        -0.474351         1.879879
 H         1.013189         1.169864         1.648157
