19
Iteration:  2303charge 0 multiplicity 1
 C         0.051159        -0.801897        -0.328330
 C         1.398702        -0.111548        -0.057178
 C         1.759918         1.244455        -0.957362
 C         3.104787         0.831338        -0.345575
 C         4.267683         0.421380        -1.358985
 O         3.295727        -0.580357        -1.815704
 C         2.682786        -0.641753        -0.491968
 O         3.029425         1.217536         1.008262
 C         1.844646         0.445422         1.343390
 H        -0.729426        -0.307724         0.297353
 H        -0.342596        -0.567960        -1.381601
 H        -0.071674        -1.949597        -0.182868
 H         1.779231         0.884381        -2.042190
 H         1.165719         2.185728        -0.567238
 H         4.902447         1.134465        -2.076619
 H         5.059430        -0.149749        -0.795512
 H         3.130674        -1.556694         0.032952
 H         2.140261        -0.287997         2.057700
 H         1.196560         1.199616         1.760231
