19
Iteration:  3290charge 0 multiplicity 1
 C        -0.019807        -0.719167        -0.253271
 C         1.263024        -0.017921        -0.098238
 C         1.765634         1.181550        -0.990336
 C         3.155544         0.790915        -0.408386
 C         4.209370         0.513972        -1.366440
 O         3.498767        -0.696530        -1.779482
 C         2.667031        -0.640620        -0.443122
 O         3.110812         1.151226         0.961813
 C         1.744422         0.444839         1.350001
 H        -0.972681        -0.231814        -0.034099
 H        -0.183813        -0.912175        -1.360211
 H         0.036031        -1.647526         0.356921
 H         1.474286         1.264465        -1.990461
 H         1.492598         2.119888        -0.468946
 H         4.304910         1.317136        -2.156039
 H         5.290104         0.342855        -0.978712
 H         2.999435        -1.527442         0.162911
 H         2.056869        -0.363184         2.016685
 H         1.084418         1.138783         1.880756
