19
Iteration:  3577charge 0 multiplicity 1
 C         0.024573        -0.823191        -0.295495
 C         1.244390         0.055869        -0.097401
 C         1.743965         1.322966        -0.920768
 C         3.126504         0.759589        -0.321877
 C         4.278826         0.520121        -1.428846
 O         3.457447        -0.774493        -1.754547
 C         2.668256        -0.619162        -0.544247
 O         3.062893         1.109984         1.084343
 C         1.809752         0.501591         1.265159
 H        -0.938508        -0.333091         0.174768
 H        -0.053497        -1.057866        -1.384095
 H         0.234758        -1.799844         0.268970
 H         1.506310         1.292477        -1.947649
 H         1.411952         2.280731        -0.547680
 H         4.185716         1.255642        -2.267584
 H         5.312700         0.310387        -1.333711
 H         3.140521        -1.345574         0.195263
 H         1.909596        -0.341366         1.927974
 H         0.965828         1.174872         1.594763
