19
Iteration:  1237charge 0 multiplicity 1
 C        -0.067097        -0.857826        -0.226121
 C         1.304791        -0.136013        -0.096426
 C         1.859752         1.329284        -0.892376
 C         3.186289         0.760360        -0.293701
 C         4.288291         0.601233        -1.423357
 O         3.370228        -0.593100        -1.907150
 C         2.677816        -0.623638        -0.545548
 O         3.072297         1.005392         1.078460
 C         1.705154         0.517335         1.305669
 H        -0.632793        -0.628147        -1.120149
 H         0.231905        -1.819099        -0.227072
 H        -0.591905        -0.658138         0.680180
 H         1.955816         1.230636        -2.007892
 H         1.430709         2.354353        -0.510321
 H         4.399841         1.350783        -2.178969
 H         5.230550         0.116350        -1.085467
 H         3.258277        -1.450022        -0.093602
 H         1.890536        -0.129647         2.217000
 H         1.037820         1.364112         1.478054
