19
Iteration:  1521charge 0 multiplicity 1
 C        -0.109406        -0.763668        -0.267718
 C         1.371507        -0.082747        -0.185847
 C         1.778014         1.246209        -0.877597
 C         3.175383         0.817315        -0.255486
 C         4.225586         0.503994        -1.316946
 O         3.337435        -0.545966        -1.898571
 C         2.728785        -0.686258        -0.605265
 O         3.077476         1.200809         1.048629
 C         1.849208         0.363718         1.310346
 H        -0.217142        -1.504532        -1.154897
 H        -0.269785        -1.523151         0.518672
 H        -1.031149        -0.086162        -0.075172
 H         1.769471         0.901509        -1.879250
 H         1.312896         2.080864        -0.555970
 H         4.615569         1.367336        -1.957923
 H         5.131745        -0.091589        -0.996592
 H         3.079845        -1.531129         0.006915
 H         2.250522        -0.408232         1.945891
 H         1.243511         0.966115         1.955026
