19
Iteration:  1727charge 0 multiplicity 1
 C         0.045113        -0.724497        -0.305310
 C         1.368182        -0.029619        -0.124266
 C         1.709612         1.190489        -0.873431
 C         3.151799         0.781474        -0.305246
 C         4.242233         0.442337        -1.387465
 O         3.377775        -0.649697        -1.938817
 C         2.683371        -0.667137        -0.510257
 O         3.021799         1.254516         1.122310
 C         1.827408         0.399617         1.321928
 H        -0.529144        -0.092520        -1.025828
 H         0.123356        -1.680945        -0.740991
 H        -0.375745        -0.803129         0.620159
 H         1.858108         1.042366        -1.965801
 H         1.305655         2.262532        -0.637156
 H         4.498093         1.182704        -2.271470
 H         5.072673         0.137122        -0.802326
 H         2.841292        -1.482712         0.145539
 H         2.159551        -0.510472         1.940565
 H         1.072106         0.980425         1.840880
