19
Iteration:  3318charge 0 multiplicity 1
 C        -0.038984        -0.636584        -0.171502
 C         1.356808        -0.172698        -0.188445
 C         1.765314         1.113454        -1.010814
 C         3.190377         0.840826        -0.360838
 C         4.264202         0.416357        -1.346566
 O         3.404654        -0.588766        -1.909570
 C         2.742570        -0.672273        -0.405507
 O         2.969893         1.260932         1.081891
 C         1.820789         0.394609         1.273647
 H        -0.673058         0.263269        -0.167583
 H        -0.367045        -1.214688        -1.043423
 H        -0.447377        -1.256700         0.646378
 H         1.702965         1.271678        -2.129264
 H         1.145384         1.940000        -0.608878
 H         4.632323         1.114608        -2.072359
 H         5.129551         0.064599        -0.833571
 H         3.250298        -1.444159         0.151512
 H         2.179009        -0.437984         1.925166
 H         0.997044         0.964253         1.722487
