19
Iteration:  3157
 C        -0.099546        -0.685174        -0.183739
 C         1.302193        -0.059501        -0.137414
 C         1.767674         1.203257        -0.966965
 C         3.181668         0.780730        -0.350678
 C         4.165149         0.558216        -1.453837
 O         3.585812        -0.687237        -1.847248
 C         2.776731        -0.663959        -0.509141
 O         3.002332         1.079447         1.095666
 C         1.759622         0.454473         1.288102
 H        -0.724691         0.184165        -0.234529
 H        -0.223165        -1.541915        -0.856510
 H        -0.206018        -1.213655         0.805259
 H         1.540211         1.127101        -2.020767
 H         1.292642         2.087377        -0.551042
 H         4.137705         1.293811        -2.236699
 H         5.329559         0.483707        -1.185935
 H         3.107580        -1.416379         0.219511
 H         1.700011        -0.263290         2.159232
 H         1.155007         1.341125         1.519109
