19
Iteration:  4696charge 0 multiplicity 1
 C        -0.053788        -0.728921        -0.140712
 C         1.328736        -0.049488        -0.238680
 C         1.792591         1.217212        -0.938401
 C         3.187161         0.798351        -0.330175
 C         4.273087         0.579035        -1.335548
 O         3.434873        -0.697105        -1.784997
 C         2.703279        -0.651274        -0.536928
 O         3.069623         1.129752         0.994519
 C         1.698573         0.447777         1.261350
 H        -0.660074        -0.180320         0.546186
 H        -0.514353        -1.086340        -1.051038
 H         0.127802        -1.762860         0.312423
 H         1.790479         1.159157        -2.090634
 H         1.446455         2.180342        -0.631516
 H         4.321595         1.222680        -2.287620
 H         5.231405         0.282533        -0.907515
 H         2.793553        -1.516471         0.175560
 H         1.990331        -0.396506         1.888554
 H         1.002036         1.244228         1.630267
