19
Iteration:  3783
 C         0.004034        -0.742812        -0.134120
 C         1.252955         0.014539        -0.155945
 C         1.757873         1.255811        -0.909622
 C         3.112845         0.820678        -0.423704
 C         4.277618         0.510159        -1.413563
 O         3.538753        -0.735832        -1.770241
 C         2.732084        -0.640271        -0.551688
 O         2.954564         1.169710         0.999509
 C         1.740212         0.349436         1.280931
 H        -0.719697        -0.275291         0.498147
 H        -0.453852        -0.650646        -1.125979
 H         0.061968        -1.776170         0.277223
 H         1.824537         1.375635        -2.000354
 H         1.582364         2.363323        -0.435966
 H         4.523574         1.140896        -2.302058
 H         5.319390         0.404176        -0.907171
 H         3.198528        -1.247948         0.225174
 H         1.955018        -0.653615         1.688267
 H         1.034693         0.984593         1.933280
