19
Iteration:  3226
 C        -0.015294        -0.717519        -0.239894
 C         1.395698        -0.054311        -0.127973
 C         1.840033         1.130234        -0.956249
 C         3.201821         0.793871        -0.285578
 C         4.260783         0.425370        -1.344329
 O         3.296079        -0.600360        -1.834697
 C         2.763494        -0.692851        -0.517415
 O         2.956245         1.274240         1.025591
 C         1.770476         0.458307         1.280755
 H        -0.721656        -0.234496         0.441612
 H        -0.380920        -0.944442        -1.248289
 H         0.136783        -1.730699         0.080680
 H         1.596934         0.928940        -2.023706
 H         1.470435         2.173046        -0.653423
 H         4.562787         1.178724        -2.181174
 H         5.185783        -0.035602        -0.965346
 H         3.217470        -1.627433        -0.091840
 H         2.090422        -0.332920         2.021705
 H         0.949643         1.154630         1.684960
