19
Iteration:  2652
 C         0.053911        -0.785404        -0.298393
 C         1.320124        -0.006633        -0.167557
 C         1.663910         1.316170        -0.930025
 C         3.121667         0.838268        -0.372027
 C         4.231214         0.427187        -1.317142
 O         3.406686        -0.704939        -1.816553
 C         2.706715        -0.571843        -0.512930
 O         3.103304         1.127822         1.081790
 C         1.830028         0.450566         1.334667
 H        -0.826052        -0.461359         0.166042
 H        -0.194622        -0.920199        -1.391273
 H         0.185494        -1.806439         0.176676
 H         1.519445         1.229759        -2.001961
 H         1.088308         2.256356        -0.709774
 H         4.366825         0.935341        -2.233018
 H         5.270667         0.190298        -0.934433
 H         2.988201        -1.432139         0.101487
 H         1.951767        -0.466407         1.789640
 H         1.116625         1.113438         1.788282
