19
Iteration:  1028charge 0 multiplicity 1
 C        -0.070139        -0.670367        -0.232326
 C         1.365684        -0.096366        -0.118644
 C         1.751695         1.251408        -0.887188
 C         3.094328         0.854590        -0.335108
 C         4.218942         0.647072        -1.337466
 O         3.417846        -0.583108        -1.955149
 C         2.705695        -0.712570        -0.586840
 O         3.083120         1.039854         1.060262
 C         1.874493         0.292601         1.392948
 H        -0.207874        -1.719439        -0.037709
 H        -0.749479        -0.209519         0.447460
 H        -0.411184        -0.596314        -1.267101
 H         1.762266         1.304911        -2.017414
 H         1.235825         2.156492        -0.374294
 H         4.286475         1.233417        -2.206846
 H         5.194883         0.347756        -0.872082
 H         3.085035        -1.601943        -0.106358
 H         2.207623        -0.512431         2.099912
 H         1.049889         0.912987         1.735757
