19
Iteration:  1381charge 0 multiplicity 1
 C         0.019657        -0.769287        -0.274221
 C         1.291564        -0.040309        -0.217826
 C         1.731858         1.291152        -0.862062
 C         3.113689         0.785096        -0.307312
 C         4.185979         0.497142        -1.265590
 O         3.361727        -0.538106        -1.937284
 C         2.713368        -0.668332        -0.509641
 O         3.101353         1.137555         0.970313
 C         1.868898         0.318024         1.336480
 H         0.015432        -1.560013        -1.011989
 H         0.022010        -1.254039         0.642827
 H        -0.784415        -0.052584        -0.207743
 H         1.722282         1.211299        -1.966265
 H         1.501977         2.323346        -0.318790
 H         4.496793         1.257686        -1.909938
 H         5.082327         0.036132        -0.688051
 H         2.961123        -1.528078         0.180541
 H         2.009836        -0.650195         1.901461
 H         1.214402         1.088938         1.870416
