19
Iteration:  1879charge 0 multiplicity 1
 C        -0.053338        -0.851258        -0.298830
 C         1.304732        -0.009499        -0.185719
 C         1.745319         1.215032        -0.953936
 C         3.161517         0.807518        -0.339681
 C         4.286373         0.459086        -1.371179
 O         3.380279        -0.633939        -1.785954
 C         2.682634        -0.607325        -0.442918
 O         3.138275         1.165457         1.078377
 C         1.792658         0.497691         1.253634
 H        -0.587841        -0.859978         0.689050
 H        -0.605901        -0.419006        -1.097837
 H         0.048368        -1.890419        -0.534326
 H         1.652545         1.201437        -2.042056
 H         1.340648         2.119184        -0.409533
 H         4.441014         1.110455        -2.128759
 H         5.323620         0.248481        -0.951601
 H         2.848800        -1.550546         0.131640
 H         1.835863        -0.375311         1.889708
 H         1.125084         1.201597         1.670211
