19
Iteration:   450
 C        -0.045102        -0.816737        -0.212933
 C         1.348330        -0.055571        -0.157323
 C         1.806431         1.404834        -0.528901
 C         3.229086         0.777499        -0.261792
 C         4.127722         0.764268        -1.455995
 O         3.213866        -0.233757        -2.113342
 C         2.621746        -0.581439        -0.773476
 O         3.310026         0.814328         1.190496
 C         1.824577        -0.045597         1.284270
 H        -0.510873        -0.896650         0.859587
 H        -0.857892        -0.412225        -0.910934
 H         0.097825        -1.849760        -0.474111
 H         1.583221         1.627381        -1.556818
 H         1.572405         2.188908         0.098762
 H         4.090485         1.766628        -1.957893
 H         5.187574         0.332001        -1.319556
 H         2.842973        -1.606024        -0.431018
 H         2.221353        -0.919173         1.637033
 H         1.195048         0.538636         1.918273
