19
Iteration:  2683
 C        -0.064055        -0.807954        -0.111633
 C         1.331465        -0.075774        -0.187964
 C         1.850132         1.233022        -0.963431
 C         3.127741         0.800326        -0.391921
 C         4.253402         0.553737        -1.341666
 O         3.458483        -0.615838        -1.877511
 C         2.716067        -0.684453        -0.484121
 O         3.034099         1.071376         1.091347
 C         1.744002         0.550484         1.229900
 H        -0.805672        -0.347488         0.547361
 H        -0.667720        -0.654795        -1.025042
 H         0.056011        -1.879138        -0.045546
 H         1.884122         1.187834        -2.115830
 H         1.431107         2.210504        -0.404049
 H         4.365148         1.120034        -2.240734
 H         5.254105         0.302828        -0.716346
 H         3.093070        -1.607225        -0.014776
 H         1.763293        -0.307120         1.885857
 H         0.997929         1.273659         1.546910
