19
Iteration:  4261
 C        -0.127733        -0.643551        -0.213755
 C         1.399545        -0.169924        -0.156626
 C         1.782010         1.024104        -0.954616
 C         3.166861         0.723636        -0.300365
 C         4.194601         0.635697        -1.299568
 O         3.412786        -0.535911        -1.840986
 C         2.803849        -0.803169        -0.554824
 O         3.112660         1.167127         1.049000
 C         1.741126         0.521275         1.244535
 H        -0.785551         0.171324        -0.021498
 H        -0.363136        -1.164378        -1.132403
 H        -0.304118        -1.409574         0.587972
 H         1.806347         1.175224        -2.075779
 H         1.258602         1.966557        -0.590157
 H         4.323490         1.564872        -1.955050
 H         5.053089         0.165635        -1.071295
 H         3.182469        -1.645568         0.127821
 H         1.754708        -0.104865         2.079278
 H         0.905882         1.143503         1.375221
