19
Iteration:  4612
 C         0.001834        -0.777541        -0.238454
 C         1.323924         0.008081        -0.166306
 C         1.817636         1.230433        -0.915544
 C         3.134056         0.802145        -0.383493
 C         4.208441         0.545886        -1.513552
 O         3.468950        -0.668201        -1.770144
 C         2.693139        -0.660117        -0.530654
 O         3.065109         1.054056         1.139423
 C         1.694749         0.483966         1.309962
 H        -0.887771        -0.126080        -0.291255
 H         0.029664        -1.333372        -1.189724
 H         0.005081        -1.420203         0.722084
 H         1.772096         1.042283        -1.934664
 H         1.638031         2.292628        -0.630199
 H         4.118740         1.095204        -2.500029
 H         5.259503         0.354831        -1.246312
 H         2.978019        -1.427551         0.159892
 H         1.631499        -0.151961         2.270350
 H         1.180723         1.323176         1.821007
