19
Iteration:  2568charge 0 multiplicity 1
 C        -0.087791        -0.752388        -0.147921
 C         1.241873        -0.017313        -0.190614
 C         1.717524         1.227677        -0.971149
 C         3.112689         0.759208        -0.400493
 C         4.324119         0.577210        -1.346321
 O         3.504410        -0.611329        -1.799997
 C         2.739548        -0.680249        -0.509416
 O         3.099555         1.038998         1.077448
 C         1.766087         0.490761         1.206490
 H        -0.861946         0.039909        -0.156197
 H        -0.263301        -1.482735        -0.932740
 H        -0.032772        -1.299478         0.819370
 H         1.607087         1.167936        -1.989716
 H         1.481069         2.122969        -0.500319
 H         4.225516         1.250120        -2.252511
 H         5.281530         0.229351        -1.091176
 H         3.141363        -1.400753         0.225758
 H         1.799286        -0.412094         1.929479
 H         0.949863         1.103005         1.649994
