19
Iteration:  2793
 C         0.002805        -0.825903        -0.308457
 C         1.381820        -0.042566        -0.104271
 C         1.831801         1.177918        -0.916667
 C         3.197410         0.800724        -0.290826
 C         4.191246         0.585207        -1.429366
 O         3.307293        -0.641553        -1.876383
 C         2.721853        -0.657704        -0.493421
 O         3.122940         1.154972         1.164901
 C         1.681326         0.478892         1.268925
 H        -0.802281        -0.163049        -0.481141
 H         0.152224        -1.453285        -1.171200
 H        -0.190384        -1.317224         0.654038
 H         1.703453         0.964633        -1.952432
 H         1.299330         2.246344        -0.772069
 H         4.415948         1.383063        -2.028086
 H         5.105311         0.002786        -1.162964
 H         3.220511        -1.528929        -0.069879
 H         1.888689        -0.376452         1.941839
 H         0.978359         1.251847         1.551257
