19
Iteration:   957charge 0 multiplicity 1
 C        -0.010171        -0.776835        -0.262175
 C         1.316208         0.010315        -0.202383
 C         1.600895         1.390044        -0.792256
 C         3.202083         0.810960        -0.325115
 C         4.305759         0.511038        -1.370401
 O         3.359986        -0.555594        -1.914936
 C         2.658616        -0.601418        -0.566221
 O         3.198313         0.993338         1.099510
 C         1.783771         0.300514         1.287584
 H        -0.477950        -1.062698         0.680232
 H        -0.833865        -0.472341        -0.909639
 H         0.352585        -1.692899        -0.629487
 H         1.441749         1.466096        -1.834504
 H         1.160321         2.132625        -0.193102
 H         4.313932         1.523301        -2.022256
 H         5.239309        -0.001369        -1.104985
 H         2.953584        -1.585751        -0.083035
 H         2.166288        -0.613755         1.745653
 H         1.222882         0.991906         1.996646
