19
Iteration:  2824
 C         0.002730        -0.768929        -0.231452
 C         1.351778        -0.140490        -0.123274
 C         1.791049         1.146053        -0.924489
 C         3.133634         0.760664        -0.383439
 C         4.281444         0.580313        -1.332667
 O         3.378626        -0.533481        -1.877599
 C         2.716967        -0.714953        -0.492750
 O         3.071773         1.091865         1.000322
 C         1.732917         0.554973         1.326029
 H        -0.702841         0.079915        -0.098502
 H        -0.390563        -1.215389        -1.146404
 H        -0.096429        -1.561947         0.492930
 H         1.586890         1.118844        -1.956135
 H         1.361230         2.070816        -0.540409
 H         4.574025         1.458475        -1.870009
 H         5.085190         0.052159        -0.848143
 H         3.228292        -1.545066        -0.007156
 H         1.884106        -0.226068         2.186943
 H         0.894261         1.243202         1.592874
