19
Iteration:   195
 C         0.025074        -0.640038        -0.151038
 C         1.375619        -0.093386        -0.167425
 C         1.767475         1.264604        -0.465219
 C         3.248038         0.731235        -0.175479
 C         4.040002         0.902027        -1.466138
 O         3.063628         0.019404        -2.197159
 C         2.714678        -0.573380        -0.918425
 O         3.295110         0.486036         1.209654
 C         1.937888        -0.075336         1.321672
 H        -0.823714         0.010507         0.038241
 H        -0.258984        -1.001174        -1.171963
 H         0.075118        -1.575322         0.634067
 H         1.690380         1.599977        -1.481109
 H         1.417223         2.037561         0.206115
 H         4.104198         1.929861        -1.804279
 H         5.063017         0.286540        -1.319396
 H         3.177869        -1.615658        -0.812536
 H         1.956573        -1.116210         1.703345
 H         1.306631         0.590346         1.895068
