19
Iteration:  1459charge 0 multiplicity 1
 C        -0.110606        -0.748323        -0.233150
 C         1.303537        -0.072005        -0.263927
 C         1.778421         1.220481        -0.911353
 C         3.184083         0.765160        -0.333786
 C         4.159759         0.612082        -1.467818
 O         3.510474        -0.611768        -1.801033
 C         2.639354        -0.683938        -0.524725
 O         3.179564         1.042789         1.164374
 C         1.784751         0.465664         1.298963
 H        -0.658069        -0.579770        -1.159975
 H         0.220868        -1.769753        -0.188811
 H        -0.638182        -0.514304         0.694247
 H         1.518632         1.227699        -2.013124
 H         1.226694         2.276748        -0.611467
 H         4.118505         1.395082        -2.156906
 H         5.263558         0.416117        -1.235657
 H         3.057832        -1.488904         0.195799
 H         1.809894        -0.354216         2.082495
 H         0.932403         1.201924         1.642056
