19
Iteration:  2858
 C        -0.067440        -0.739600        -0.189228
 C         1.285016        -0.021247        -0.228886
 C         1.685933         1.254535        -0.976279
 C         3.150201         0.834790        -0.424064
 C         4.292700         0.544576        -1.421803
 O         3.542487        -0.663612        -1.745890
 C         2.681135        -0.597063        -0.504707
 O         3.021621         1.109308         1.047504
 C         1.817135         0.343563         1.316390
 H        -0.623325        -0.230941         0.583203
 H        -0.597862        -0.850306        -1.143926
 H         0.001828        -1.677116         0.387051
 H         1.587453         1.071386        -2.024119
 H         1.299299         2.281080        -0.643973
 H         4.507661         1.229481        -2.154648
 H         5.212679         0.259112        -0.904929
 H         2.923312        -1.369588         0.224335
 H         2.248493        -0.629176         1.823330
 H         1.035827         0.773625         1.996123
