19
Iteration:  1859charge 0 multiplicity 1
 C         0.001023        -0.796446        -0.323715
 C         1.265636        -0.025600        -0.102756
 C         1.761991         1.365508        -0.873518
 C         3.094850         0.858491        -0.376077
 C         4.201609         0.453562        -1.336948
 O         3.445524        -0.748447        -1.792718
 C         2.747341        -0.620863        -0.547937
 O         3.062726         1.156244         0.960417
 C         1.802931         0.417355         1.369921
 H        -0.638416        -0.938421         0.554569
 H        -0.505299        -0.474479        -1.165979
 H         0.234377        -1.774189        -0.597435
 H         1.588753         1.106726        -1.950099
 H         1.457043         2.490607        -0.569637
 H         4.652229         0.991619        -2.211801
 H         5.019640        -0.027863        -0.806846
 H         3.164855        -1.113054         0.338704
 H         1.953759        -0.392509         2.103724
 H         1.189231         1.203984         1.742286
