19
Iteration:  2465
 C         0.016745        -0.825538        -0.279492
 C         1.328218        -0.028575        -0.144584
 C         1.790892         1.292461        -0.908787
 C         3.202854         0.743671        -0.361865
 C         4.150598         0.532601        -1.493706
 O         3.436334        -0.666468        -1.716242
 C         2.674694        -0.607889        -0.467019
 O         3.123034         1.063183         1.116143
 C         1.718099         0.515281         1.264486
 H        -0.852656        -0.294149         0.177839
 H        -0.163984        -0.703937        -1.406265
 H         0.002960        -1.944943         0.119454
 H         1.498879         1.146113        -2.005890
 H         1.311209         2.272423        -0.630462
 H         4.168527         1.131848        -2.365309
 H         5.267689         0.321258        -1.375270
 H         3.146459        -1.322023         0.241006
 H         1.837705        -0.385588         2.029169
 H         1.007918         1.384740         1.349875
