19
Iteration:  2746charge 0 multiplicity 1
 C        -0.056070        -0.767196        -0.318182
 C         1.291941        -0.046998        -0.182013
 C         1.678261         1.204204        -0.839833
 C         3.137214         0.863373        -0.350454
 C         4.255854         0.514860        -1.350739
 O         3.453559        -0.743702        -1.814189
 C         2.710184        -0.586639        -0.524388
 O         3.131392         1.208508         1.005519
 C         1.789748         0.351157         1.361618
 H        -0.901978        -0.003157        -0.089875
 H        -0.128673        -1.023830        -1.391230
 H        -0.202775        -1.532648         0.408018
 H         1.682028         1.309636        -1.954541
 H         1.296584         2.162271        -0.543979
 H         4.465396         1.115459        -2.253942
 H         5.144979         0.488127        -0.781469
 H         3.040662        -1.432806         0.096326
 H         2.256843        -0.554275         1.908434
 H         1.058878         1.059647         1.819087
