19
Iteration:  1795
 C         0.006196        -0.664915        -0.178876
 C         1.341614        -0.051897        -0.120369
 C         1.774612         1.127045        -0.921101
 C         3.162570         0.676611        -0.310488
 C         4.313698         0.587683        -1.420610
 O         3.439475        -0.580107        -1.871038
 C         2.729141        -0.715353        -0.504369
 O         3.003215         1.077630         1.041636
 C         1.690561         0.504779         1.290695
 H        -0.729610         0.155751        -0.014166
 H        -0.314645        -1.082463        -1.137100
 H        -0.037087        -1.479039         0.567210
 H         1.729413         0.890772        -1.996655
 H         1.346725         2.159783        -0.668624
 H         4.309268         1.537713        -2.165819
 H         5.251844         0.189631        -1.105361
 H         3.138992        -1.598377        -0.010633
 H         1.728456        -0.272237         2.135616
 H         1.029347         1.387496         1.478241
