19
Iteration:  4863charge 0 multiplicity 1
 C        -0.109084        -0.760460        -0.088886
 C         1.357894        -0.011026        -0.066611
 C         1.820952         1.138434        -1.051018
 C         3.195767         0.769770        -0.317684
 C         4.384370         0.512494        -1.323036
 O         3.422248        -0.588703        -1.888928
 C         2.706052        -0.652390        -0.556468
 O         2.951964         1.171638         1.021443
 C         1.746087         0.413929         1.259249
 H        -0.804298        -0.155664         0.511949
 H        -0.473295        -0.731804        -1.146359
 H        -0.106164        -1.757423         0.399333
 H         1.690134         1.089028        -2.059236
 H         1.620269         2.192102        -0.747197
 H         4.552038         1.296192        -2.175389
 H         5.269499        -0.028652        -0.978939
 H         3.164803        -1.467051         0.078513
 H         1.757793        -0.380461         2.002028
 H         0.872151         1.110961         1.556278
