19
Iteration:  2621charge 0 multiplicity 1
 C        -0.018321        -0.736042        -0.389305
 C         1.361998        -0.098118        -0.084569
 C         1.775899         1.226570        -0.914850
 C         3.195663         0.737742        -0.304205
 C         4.231149         0.485350        -1.369148
 O         3.288877        -0.591937        -1.809974
 C         2.769731        -0.646952        -0.438889
 O         3.060944         1.240864         0.984713
 C         1.809421         0.408738         1.327965
 H        -0.816048        -0.018055        -0.326696
 H         0.206865        -1.290355        -1.329764
 H        -0.264674        -1.569420         0.390490
 H         1.608762         0.993207        -1.907307
 H         1.369881         2.147791        -0.554885
 H         4.148323         1.186020        -2.222682
 H         5.211364         0.129797        -1.025989
 H         3.119573        -1.539273         0.107221
 H         1.984747        -0.511106         2.033431
 H         1.081259         0.989833         1.947099
