19
Iteration:  1323charge 0 multiplicity 1
 C         0.000887        -0.641277        -0.228079
 C         1.390319        -0.166892        -0.135568
 C         1.769757         1.161838        -0.945068
 C         3.120219         0.769810        -0.299160
 C         4.122919         0.665849        -1.376362
 O         3.384174        -0.574748        -1.881691
 C         2.765275        -0.711063        -0.565402
 O         3.069070         1.055963         1.108199
 C         1.852237         0.395651         1.320373
 H        -0.234951        -1.204414        -1.160430
 H        -0.396538        -1.243138         0.589796
 H        -0.708766         0.225585        -0.372494
 H         1.701771         1.225217        -2.016988
 H         1.486350         2.072048        -0.567588
 H         4.278987         1.460107        -2.149860
 H         5.029954         0.325428        -0.971600
 H         3.170021        -1.618096        -0.066529
 H         1.813889        -0.331220         2.130657
 H         1.106080         1.117669         1.544650
