19
Iteration:  2273charge 0 multiplicity 1
 C        -0.051242        -0.779606        -0.162233
 C         1.344317        -0.019168        -0.135378
 C         1.779756         1.288645        -0.966280
 C         3.142512         0.771870        -0.331773
 C         4.283305         0.512696        -1.393326
 O         3.458255        -0.637630        -1.809184
 C         2.706245        -0.642287        -0.496344
 O         3.066739         1.117957         1.027395
 C         1.713394         0.401640         1.206526
 H        -0.742548        -0.206899         0.478730
 H        -0.233091        -1.170387        -1.131739
 H         0.019662        -1.601347         0.493582
 H         1.535624         1.237652        -2.077550
 H         1.202389         2.217838        -0.592127
 H         4.409102         1.408787        -2.010316
 H         5.250146         0.163094        -1.150146
 H         2.997680        -1.509763         0.076875
 H         1.813760        -0.389299         1.941369
 H         1.086391         1.180130         1.652982
