19
Iteration:  4344charge 0 multiplicity 1
 C        -0.000601        -0.822994        -0.309818
 C         1.374325        -0.007078        -0.066837
 C         1.760395         1.177670        -0.882147
 C         3.206306         0.765572        -0.387912
 C         4.299660         0.477561        -1.388008
 O         3.334307        -0.621511        -1.886858
 C         2.751875        -0.683866        -0.480369
 O         3.014230         1.262407         1.051826
 C         1.725672         0.487672         1.366550
 H        -0.941794        -0.388410         0.163559
 H        -0.179964        -0.752977        -1.435736
 H         0.083218        -1.856582        -0.031359
 H         1.698837         0.946572        -1.862930
 H         1.410734         2.138056        -0.544827
 H         4.522604         1.196246        -2.181152
 H         5.280673         0.014059        -0.926979
 H         3.064373        -1.510002         0.149691
 H         1.919167        -0.500434         1.858984
 H         0.906821         1.153859         1.785290
