19
Iteration:  1411charge 0 multiplicity 1
 C        -0.044269        -0.749525        -0.302589
 C         1.322397        -0.083107        -0.093938
 C         1.714929         1.180673        -0.877388
 C         3.176534         0.880421        -0.313842
 C         4.294516         0.413397        -1.412724
 O         3.357929        -0.511821        -1.924623
 C         2.754230        -0.608744        -0.526403
 O         3.029050         1.151428         1.079357
 C         1.819959         0.350506         1.382366
 H        -0.214489        -0.846903        -1.441083
 H        -0.092688        -1.767199         0.185291
 H        -0.745058        -0.020500         0.264443
 H         1.762449         0.983525        -1.933997
 H         1.304779         2.095100        -0.729398
 H         4.606835         1.082536        -2.258555
 H         5.206214         0.010624        -0.999567
 H         3.036235        -1.505217         0.041125
 H         2.020055        -0.488714         2.060490
 H         1.215486         1.047680         1.900313
