19
Iteration:  3071charge 0 multiplicity 1
 C         0.033876        -0.838595        -0.265224
 C         1.303648         0.034807        -0.167041
 C         1.733541         1.379817        -0.922027
 C         3.105243         0.840546        -0.399963
 C         4.269090         0.460140        -1.350551
 O         3.402909        -0.704074        -1.734327
 C         2.681569        -0.641965        -0.540723
 O         3.055933         1.103892         1.011607
 C         1.807199         0.453231         1.278075
 H        -0.812685        -0.613978         0.368365
 H        -0.358698        -0.936127        -1.286516
 H         0.264698        -1.835356         0.110840
 H         1.631196         1.187628        -1.999630
 H         1.351687         2.333875        -0.409001
 H         4.507689         1.099329        -2.193557
 H         5.130577         0.206681        -0.834877
 H         3.082336        -1.354392         0.225301
 H         2.197291        -0.436916         1.862707
 H         1.205856         1.119648         1.956706
