19
Iteration:  3585charge 0 multiplicity 1
 C         0.015350        -0.796404        -0.230998
 C         1.259981         0.066021        -0.142726
 C         1.830360         1.313713        -0.905599
 C         3.169745         0.785502        -0.390619
 C         4.234066         0.523467        -1.506455
 O         3.533859        -0.739258        -1.788659
 C         2.594187        -0.615757        -0.472837
 O         3.036940         1.097061         1.086036
 C         1.727855         0.444436         1.311391
 H        -0.911120        -0.570624         0.354913
 H        -0.191951        -1.160457        -1.269937
 H         0.410410        -1.751528         0.185139
 H         1.743427         1.257751        -2.092802
 H         1.534237         2.338443        -0.629017
 H         4.150979         1.194390        -2.304822
 H         5.300760         0.247990        -1.098348
 H         2.924236        -1.372296         0.234729
 H         1.769495        -0.327491         2.130174
 H         0.915191         1.187950         1.618476
