19
Iteration:   141charge 0 multiplicity 1
 C         0.015989        -0.683150        -0.253106
 C         1.347979        -0.068882        -0.095712
 C         1.569466         1.483894        -0.358380
 C         3.101773         0.799730        -0.231842
 C         4.058785         0.821519        -1.422759
 O         3.139580        -0.067473        -2.202077
 C         2.617993        -0.524803        -0.877239
 O         3.400594         0.519583         1.172796
 C         2.107178        -0.236146         1.268351
 H        -0.243763        -0.490970        -1.272928
 H         0.094213        -1.798748        -0.112213
 H        -0.816834        -0.090320         0.378151
 H         1.315767         1.889326        -1.303587
 H         1.268924         2.179998         0.369498
 H         4.339729         1.756553        -1.826498
 H         5.112926         0.374491        -1.212214
 H         3.297113        -1.423225        -0.584389
 H         2.360808        -1.360793         1.324922
 H         1.550441         0.045824         2.177860
