19
Iteration:  2467charge 0 multiplicity 1
 C         0.021628        -0.817992        -0.284601
 C         1.324623        -0.046670        -0.133552
 C         1.783401         1.301867        -0.897543
 C         3.218404         0.745684        -0.375401
 C         4.160904         0.531969        -1.479568
 O         3.430941        -0.660108        -1.709864
 C         2.677084        -0.619213        -0.461746
 O         3.117859         1.053750         1.100337
 C         1.706537         0.531591         1.265006
 H        -0.786922        -0.279982         0.162453
 H        -0.208214        -0.673040        -1.397166
 H         0.075198        -1.933499         0.069807
 H         1.513673         1.100966        -1.958434
 H         1.355794         2.200237        -0.642223
 H         4.115578         1.126169        -2.404468
 H         5.225738         0.376519        -1.431845
 H         3.158765        -1.373730         0.216071
 H         1.817397        -0.349954         1.995699
 H         1.000566         1.398575         1.393126
