19
Iteration:  1763charge 0 multiplicity 1
 C        -0.062313        -0.797718        -0.204228
 C         1.234994        -0.049881        -0.253968
 C         1.768524         1.257970        -0.896334
 C         3.135371         0.800653        -0.422723
 C         4.258392         0.557543        -1.334892
 O         3.421440        -0.640066        -1.835092
 C         2.697882        -0.618439        -0.457381
 O         3.122033         1.083879         1.036074
 C         1.825331         0.415649         1.283637
 H        -0.833078        -0.039175        -0.457201
 H        -0.171190        -1.723917        -0.787500
 H        -0.454239        -0.964349         0.851607
 H         1.912066         1.178116        -1.961119
 H         1.336735         2.204968        -0.637315
 H         4.755891         1.305496        -2.050156
 H         5.048399         0.164985        -0.763583
 H         3.265666        -1.317331         0.171821
 H         1.805756        -0.474548         1.993685
 H         1.096021         1.193990         1.679272
