19
Iteration:  1827charge 0 multiplicity 1
 C        -0.078739        -0.732316        -0.291940
 C         1.341642        -0.057563        -0.198955
 C         1.748638         1.183157        -0.918846
 C         3.136395         0.798474        -0.271324
 C         4.278883         0.476516        -1.398079
 O         3.378032        -0.640867        -1.751849
 C         2.738809        -0.640675        -0.510284
 O         3.083842         1.212127         1.037836
 C         1.816849         0.403809         1.271388
 H        -0.731292        -0.381339         0.548783
 H        -0.554951        -0.511710        -1.207735
 H         0.029478        -1.784295        -0.158352
 H         1.717986         0.960206        -2.012937
 H         1.198627         2.199153        -0.673541
 H         4.523771         1.277299        -2.265500
 H         5.221351         0.071539        -1.087933
 H         3.047085        -1.465815         0.153187
 H         1.984027        -0.396875         2.037588
 H         1.140062         1.138287         1.739750
