19
Iteration:  3153charge 0 multiplicity 1
 C        -0.080767        -0.675850        -0.167914
 C         1.302059        -0.023530        -0.160314
 C         1.794303         1.145104        -0.927487
 C         3.153993         0.748568        -0.336701
 C         4.188699         0.569131        -1.478491
 O         3.545543        -0.686159        -1.823586
 C         2.814326        -0.673044        -0.541109
 O         2.995934         1.096423         1.098366
 C         1.738081         0.462226         1.303397
 H        -0.896852         0.141890        -0.332698
 H        -0.173957        -1.495367        -0.908129
 H        -0.235442        -1.287927         0.768850
 H         1.680647         1.216631        -2.058571
 H         1.319406         2.088945        -0.657500
 H         4.094514         1.400907        -2.209185
 H         5.319747         0.486564        -1.284583
 H         3.194950        -1.455687         0.128062
 H         1.730818        -0.208290         2.138581
 H         1.134111         1.330070         1.554129
