19
Iteration:  2036
 C         0.007934        -0.780304        -0.254250
 C         1.319968        -0.035782        -0.097825
 C         1.740570         1.189882        -0.962862
 C         3.180099         0.804492        -0.289867
 C         4.292151         0.542400        -1.467196
 O         3.398605        -0.596275        -1.865890
 C         2.679059        -0.723946        -0.482765
 O         3.088745         1.068265         1.125142
 C         1.759512         0.512460         1.301030
 H        -0.886029        -0.134568        -0.495236
 H         0.082319        -1.446657        -1.131896
 H        -0.314761        -1.428393         0.596674
 H         1.545762         0.936524        -2.061439
 H         1.323829         2.317680        -0.712407
 H         4.239475         1.474595        -2.198025
 H         5.335306         0.432279        -1.073829
 H         3.076928        -1.578317         0.181525
 H         1.648026        -0.202788         2.084387
 H         1.158850         1.384769         1.541708
