19
Iteration:   625
 C        -0.064868        -0.751833        -0.259694
 C         1.333951        -0.012636        -0.107875
 C         1.747302         1.332789        -0.645037
 C         3.208870         0.798130        -0.262285
 C         4.134031         0.771378        -1.519414
 O         3.248884        -0.376997        -1.966468
 C         2.708315        -0.553199        -0.676585
 O         3.201202         0.802149         1.136751
 C         1.934697         0.043814         1.316902
 H        -0.657007        -0.027147        -0.889889
 H         0.115533        -1.646879        -0.904030
 H        -0.581657        -0.980237         0.605782
 H         1.539138         1.323373        -1.705754
 H         1.477699         2.270876        -0.175140
 H         4.095224         1.501554        -2.245733
 H         5.151543         0.473196        -1.383378
 H         3.050518        -1.495462        -0.174547
 H         2.065058        -0.945473         1.811819
 H         1.271031         0.603926         2.015941
