19
Iteration:  2439
 C         0.020852        -0.764652        -0.259816
 C         1.343818        -0.036941        -0.199417
 C         1.775843         1.250243        -0.894293
 C         3.153390         0.826973        -0.374677
 C         4.231124         0.492095        -1.317840
 O         3.370765        -0.650363        -1.820733
 C         2.724252        -0.651259        -0.516435
 O         3.047291         1.141211         1.017988
 C         1.776534         0.431082         1.337532
 H        -0.814345        -0.030484         0.005879
 H        -0.144813        -1.304417        -1.157040
 H        -0.083989        -1.422487         0.585405
 H         1.617367         1.080339        -1.959892
 H         1.197647         2.272239        -0.736853
 H         4.392835         1.094968        -2.253535
 H         5.244680         0.153143        -0.929455
 H         3.156697        -1.439143         0.094156
 H         2.092232        -0.442895         1.812913
 H         1.096964         1.037686         1.910921
