19
Iteration:   794
 C        -0.060523        -0.718023        -0.304104
 C         1.327231        -0.125786        -0.044029
 C         1.797317         1.235923        -0.701996
 C         3.269240         0.795860        -0.305958
 C         4.223324         0.638440        -1.490433
 O         3.237859        -0.380363        -2.028113
 C         2.743783        -0.694371        -0.632443
 O         3.119837         1.007389         1.164275
 C         1.815481         0.217784         1.374241
 H         0.120705        -1.622055        -0.914261
 H        -0.644149        -0.976543         0.571415
 H        -0.697545         0.096665        -0.911387
 H         1.438294         1.170831        -1.741773
 H         1.456160         2.201739        -0.319041
 H         4.421224         1.606045        -2.108719
 H         5.122378         0.136588        -1.301874
 H         3.294314        -1.602495        -0.197604
 H         2.098308        -0.700411         1.972760
 H         1.030791         0.882966         1.860116
