19
Iteration:   720charge 0 multiplicity 1
 C        -0.038517        -0.710086        -0.158054
 C         1.294674        -0.083388        -0.119701
 C         1.745502         1.342488        -0.737265
 C         3.161252         0.850849        -0.301567
 C         4.230337         0.566640        -1.406237
 O         3.337272        -0.334146        -2.027626
 C         2.684301        -0.627697        -0.666868
 O         3.082929         0.985007         1.097390
 C         1.938425         0.017831         1.282093
 H        -0.353907        -1.087006         0.833743
 H        -0.778701         0.029287        -0.494719
 H        -0.157833        -1.568962        -0.991754
 H         1.452573         1.464775        -1.812454
 H         1.418738         2.287071        -0.148870
 H         4.614725         1.341068        -2.130664
 H         5.095457         0.089073        -0.763734
 H         3.056172        -1.560514        -0.240789
 H         2.274237        -0.821037         1.883984
 H         1.217028         0.560071         1.863107
