19
Iteration:   104
 C        -0.145142        -0.744823        -0.186585
 C         1.304317        -0.109257        -0.094332
 C         1.737922         1.416392        -0.370286
 C         3.212469         0.708775        -0.227229
 C         4.105295         0.965953        -1.527668
 O         3.174424         0.060255        -2.278591
 C         2.680802        -0.545287        -0.848650
 O         3.360015         0.487817         1.230725
 C         2.006654        -0.235231         1.328418
 H        -0.031428        -1.559073        -0.990108
 H        -0.583999        -1.211447         0.725323
 H        -0.925731         0.014811        -0.526000
 H         1.557435         1.764839        -1.434616
 H         1.571212         2.174147         0.483501
 H         3.946486         2.061501        -1.889208
 H         5.107630         0.457160        -1.622899
 H         3.091643        -1.577282        -0.747949
 H         2.211590        -1.242928         1.616934
 H         1.434653         0.293478         2.090092
