19
Iteration:  2786
 C         0.055653        -0.812256        -0.338772
 C         1.361506        -0.058455        -0.134350
 C         1.872033         1.235820        -0.909870
 C         3.149281         0.867522        -0.339799
 C         4.172631         0.580213        -1.372895
 O         3.321310        -0.703588        -1.880662
 C         2.689216        -0.626475        -0.477139
 O         3.114232         1.131707         1.109878
 C         1.678977         0.437762         1.322317
 H        -0.804925        -0.107793        -0.384923
 H         0.190295        -1.591177        -1.121761
 H        -0.186256        -1.274277         0.678791
 H         1.830164         1.028459        -2.007878
 H         1.393291         2.130266        -0.515208
 H         4.309806         1.372400        -2.243232
 H         5.189758         0.143185        -1.174024
 H         3.144223        -1.459414         0.120321
 H         1.862536        -0.381489         1.970339
 H         1.103138         1.221845         1.847339
