19
Iteration:  1614charge 0 multiplicity 1
 C         0.028823        -0.688041        -0.241085
 C         1.400861        -0.065687        -0.075233
 C         1.790642         1.190678        -0.939533
 C         3.136538         0.854861        -0.360347
 C         4.196264         0.525045        -1.338932
 O         3.381731        -0.539557        -1.958318
 C         2.650756        -0.726114        -0.539020
 O         3.018264         1.168905         1.083205
 C         1.871314         0.335366         1.353219
 H        -0.016609        -1.562330        -0.841282
 H        -0.564847        -1.014333         0.631510
 H        -0.647126         0.022460        -0.585570
 H         1.683685         0.901210        -2.022005
 H         1.306979         2.175485        -0.565608
 H         4.597138         1.240671        -1.968750
 H         4.992164        -0.082954        -0.812870
 H         3.022676        -1.668944        -0.074626
 H         2.038905        -0.637188         1.874308
 H         1.040522         0.873402         1.884984
