19
Iteration:  3458
 C        -0.041534        -0.766987        -0.178008
 C         1.304889        -0.062243        -0.111993
 C         1.724597         1.239426        -0.958518
 C         3.146943         0.844573        -0.374969
 C         4.259790         0.513602        -1.280530
 O         3.464266        -0.708193        -1.838164
 C         2.726229        -0.647041        -0.568879
 O         3.044698         1.098775         1.003909
 C         1.753779         0.498826         1.286491
 H        -0.785700        -0.196125         0.400298
 H        -0.286313        -0.694545        -1.221741
 H         0.069338        -1.796220         0.198462
 H         1.736206         1.144258        -2.058529
 H         1.227579         2.201082        -0.798510
 H         4.706154         1.244466        -2.116313
 H         5.188604         0.148282        -0.851658
 H         3.016937        -1.486292         0.124756
 H         2.024221        -0.224665         2.053447
 H         1.216019         1.384975         1.683203
