19
Iteration:  3661
 C        -0.053806        -0.706704        -0.266050
 C         1.247491        -0.055692        -0.118657
 C         1.729337         1.156617        -0.898134
 C         3.140699         0.799394        -0.395900
 C         4.284682         0.564731        -1.332281
 O         3.479509        -0.645364        -1.870572
 C         2.728890        -0.675087        -0.479883
 O         3.009914         1.208050         1.002063
 C         1.866200         0.376431         1.346398
 H        -0.859373        -0.090382        -0.134867
 H        -0.229654        -0.992932        -1.317427
 H        -0.189784        -1.463125         0.494996
 H         1.597693         0.873298        -2.040964
 H         1.378131         2.142780        -0.504901
 H         4.490280         1.179004        -2.164918
 H         5.203228         0.155391        -0.738830
 H         2.986112        -1.588296         0.015351
 H         2.082762        -0.428217         2.111553
 H         1.143991         1.117954         1.737892
