19
Iteration:  1574
 C        -0.112933        -0.776267        -0.264024
 C         1.348353        -0.115470        -0.218167
 C         1.783584         1.230422        -0.865907
 C         3.152840         0.816088        -0.309091
 C         4.115160         0.609901        -1.489986
 O         3.419179        -0.609239        -1.851082
 C         2.728484        -0.602189        -0.467192
 O         3.182537         1.014390         1.151989
 C         1.789381         0.413593         1.273549
 H        -0.036429        -1.707744        -0.904832
 H        -0.524548        -1.019405         0.717855
 H        -0.671904        -0.018352        -0.863259
 H         1.776532         1.382137        -1.971530
 H         1.455758         2.136625        -0.340501
 H         4.388650         1.348162        -2.398562
 H         5.038820         0.347973        -1.003533
 H         3.059308        -1.436899         0.083346
 H         1.836343        -0.219256         2.208417
 H         1.150256         1.205964         1.580532
