19
Iteration:  3360
 C        -0.124496        -0.750960        -0.166062
 C         1.319123        -0.072345        -0.201644
 C         1.752894         1.195740        -0.970472
 C         3.108673         0.758344        -0.349528
 C         4.201824         0.533611        -1.313257
 O         3.537057        -0.657886        -1.841400
 C         2.646052        -0.664194        -0.482542
 O         3.163893         1.109391         1.036688
 C         1.777358         0.532845         1.262561
 H        -0.948910        -0.054595        -0.336818
 H        -0.213446        -1.422739        -1.020565
 H        -0.183890        -1.296763         0.753719
 H         1.691505         1.182388        -2.139259
 H         1.555130         2.205348        -0.517941
 H         4.372950         1.421229        -2.113191
 H         5.205498         0.292661        -0.941858
 H         2.990070        -1.559452         0.057564
 H         1.828618        -0.331208         1.998347
 H         1.071013         1.359367         1.616015
