19
Iteration:  2939
 C         0.104563        -0.843198        -0.270636
 C         1.352697        -0.021815        -0.151204
 C         1.763466         1.188503        -0.921559
 C         3.139987         0.776718        -0.373665
 C         4.246762         0.476861        -1.391380
 O         3.317501        -0.554337        -1.882522
 C         2.680143        -0.696833        -0.475775
 O         3.104415         1.142408         1.145098
 C         1.719323         0.506486         1.291051
 H        -0.733377        -0.178221        -0.096820
 H        -0.020834        -1.268640        -1.280757
 H         0.292936        -1.618988         0.489983
 H         1.704740         1.266843        -2.071416
 H         1.313717         2.193782        -0.561233
 H         4.404899         1.258001        -2.157145
 H         5.143311         0.093901        -0.950470
 H         3.081391        -1.527510         0.153665
 H         1.661500        -0.236698         2.093832
 H         1.070625         1.389550         1.528918
