19
Iteration:   679
 C        -0.102891        -0.729461        -0.220527
 C         1.359776        -0.105149        -0.072812
 C         1.809653         1.236314        -0.716693
 C         3.128214         0.800420        -0.333189
 C         4.188116         0.675855        -1.414658
 O         3.322335        -0.264755        -2.064930
 C         2.617224        -0.645853        -0.678023
 O         3.207205         0.876277         1.116095
 C         1.884085         0.153303         1.415745
 H        -0.882849        -0.388791         0.438019
 H        -0.366234        -0.531632        -1.277617
 H         0.072894        -1.719025        -0.188119
 H         1.642801         1.220631        -1.800907
 H         1.456153         2.179591        -0.244769
 H         4.271845         1.434924        -2.112315
 H         5.160317         0.294032        -1.059201
 H         3.097714        -1.577943        -0.377104
 H         2.058820        -0.772918         2.038744
 H         1.161951         0.876298         1.834412
