19
Iteration:  4959
 C         0.039658        -0.744151        -0.303257
 C         1.388344        -0.132512        -0.221255
 C         1.866062         1.141828        -0.922222
 C         3.207343         0.687925        -0.273474
 C         4.135240         0.524830        -1.448444
 O         3.295414        -0.532439        -1.801892
 C         2.765682        -0.704991        -0.398397
 O         3.070695         1.126706         1.072511
 C         1.694507         0.565510         1.256337
 H        -0.663536        -0.047277        -0.038100
 H        -0.145731        -1.171960        -1.279289
 H         0.130177        -1.489901         0.516690
 H         1.605801         1.175745        -1.946910
 H         1.455572         2.165192        -0.508342
 H         4.147409         1.298627        -2.274459
 H         5.070650         0.240494        -1.097845
 H         3.331715        -1.492539         0.178692
 H         1.693748        -0.202822         1.992059
 H         1.107749         1.373415         1.687453
