19
Iteration:  3487
 C        -0.047526        -0.715897        -0.117239
 C         1.285163        -0.027594        -0.267635
 C         1.731656         1.269837        -0.991126
 C         3.137250         0.840498        -0.356539
 C         4.256869         0.581011        -1.385190
 O         3.511514        -0.693889        -1.762530
 C         2.745029        -0.643181        -0.466425
 O         3.135379         1.010174         1.034650
 C         1.639325         0.425057         1.211689
 H        -0.845938         0.034623         0.254829
 H        -0.383249        -1.447565        -0.933251
 H        -0.043298        -1.504695         0.732662
 H         1.829263         1.412509        -2.133450
 H         1.165610         2.135063        -0.716814
 H         4.344278         1.175198        -2.233331
 H         5.218319         0.221649        -0.953595
 H         3.030471        -1.484274         0.219010
 H         1.876231        -0.281369         1.997825
 H         1.244436         1.337707         1.708088
