19
Iteration:  4241charge 0 multiplicity 1
 C        -0.026374        -0.632156        -0.226638
 C         1.348125        -0.131754        -0.107984
 C         1.773945         1.084820        -0.995861
 C         3.182661         0.761583        -0.279663
 C         4.252505         0.606695        -1.411196
 O         3.404011        -0.573243        -1.840166
 C         2.786365        -0.671355        -0.461310
 O         2.970668         1.146270         1.055184
 C         1.758853         0.382937         1.273533
 H        -0.532813         0.332032        -0.221912
 H        -0.321376        -1.120641        -1.131192
 H        -0.291188        -1.112402         0.765903
 H         1.692795         0.929703        -2.133345
 H         1.511513         2.131669        -0.784213
 H         4.367935         1.154247        -2.342706
 H         5.263624         0.283015        -1.070179
 H         3.246094        -1.599395         0.079556
 H         1.924825        -0.507104         1.943107
 H         0.983424         0.952276         1.796903
