19
Iteration:  3434charge 0 multiplicity 1
 C        -0.028409        -0.781735        -0.327980
 C         1.341740        -0.062784        -0.106399
 C         1.793719         1.092291        -0.957654
 C         3.220231         0.707093        -0.335432
 C         4.232646         0.414919        -1.330854
 O         3.322554        -0.559816        -1.802728
 C         2.703541        -0.673617        -0.441181
 O         3.033159         1.339147         1.053624
 C         1.841007         0.465740         1.254688
 H        -0.768406        -0.239803         0.367603
 H        -0.404788        -0.484079        -1.360216
 H        -0.069542        -1.866304        -0.107487
 H         1.448700         1.074062        -2.049091
 H         1.519446         2.035734        -0.609971
 H         4.505608         1.210386        -2.108873
 H         5.205033         0.015626        -1.077417
 H         3.078714        -1.595693         0.118689
 H         2.263801        -0.244992         1.912352
 H         1.028972         1.110061         1.672146
