19
Iteration:  2677
 C        -0.011434        -0.794858        -0.138577
 C         1.292729        -0.072207        -0.179977
 C         1.817472         1.263223        -0.928185
 C         3.144311         0.760445        -0.399924
 C         4.258706         0.575178        -1.367916
 O         3.466302        -0.636997        -1.828124
 C         2.692489        -0.620401        -0.468409
 O         3.061231         1.057352         1.036971
 C         1.720370         0.514679         1.241092
 H        -0.805660        -0.472164         0.572420
 H        -0.522508        -0.660638        -1.105749
 H         0.126397        -1.901397         0.051162
 H         1.734504         1.333204        -1.971408
 H         1.409224         2.130321        -0.548605
 H         4.647072         1.170867        -2.245737
 H         5.063705         0.180333        -0.835347
 H         2.943272        -1.529673         0.097001
 H         1.709044        -0.424406         1.874175
 H         1.037188         1.355820         1.502545
