19
Iteration:  2976charge 0 multiplicity 1
 C        -0.023493        -0.743458        -0.218287
 C         1.294610        -0.031935        -0.184665
 C         1.789467         1.286307        -0.950901
 C         3.111009         0.822868        -0.454845
 C         4.223173         0.541627        -1.374032
 O         3.459988        -0.632335        -1.805755
 C         2.666527        -0.637527        -0.400005
 O         3.084977         1.162567         1.016955
 C         1.783137         0.289654         1.308871
 H        -1.074597        -0.315287        -0.182681
 H        -0.027934        -1.517429        -1.018657
 H        -0.220378        -1.262783         0.707362
 H         1.654414         1.202617        -1.972764
 H         1.490324         2.120265        -0.400579
 H         4.475178         1.230385        -2.316465
 H         5.241657         0.252446        -0.925358
 H         3.246478        -1.258414         0.265980
 H         2.076638        -0.643900         1.704640
 H         1.040412         0.804263         1.872564
