19
Iteration:   603
 C        -0.045305        -0.700762        -0.281661
 C         1.332294        -0.116925        -0.068513
 C         1.734318         1.244058        -0.668795
 C         3.128540         0.733094        -0.307464
 C         4.168976         0.672897        -1.402712
 O         3.259601        -0.204831        -2.167796
 C         2.648875        -0.674374        -0.686938
 O         3.151318         0.948628         1.151064
 C         2.011580         0.083568         1.455532
 H        -0.383630        -0.163872        -1.204403
 H        -0.033219        -1.813331        -0.413708
 H        -0.667580        -0.411459         0.526101
 H         1.559313         1.310744        -1.728457
 H         1.439432         2.131114        -0.118786
 H         4.509896         1.496891        -1.932724
 H         5.004368         0.067896        -1.105446
 H         3.212155        -1.623849        -0.570978
 H         2.417215        -0.857331         1.907295
 H         1.365139         0.493116         2.259708
