19
Iteration:  4935
 C        -0.007580        -0.729310        -0.286893
 C         1.357030        -0.084813        -0.118908
 C         1.862405         1.188658        -0.889571
 C         3.229367         0.787865        -0.294660
 C         4.205311         0.615127        -1.524239
 O         3.384165        -0.753618        -1.827963
 C         2.752315        -0.630876        -0.540323
 O         3.044551         1.112218         1.132903
 C         1.669205         0.506954         1.337487
 H        -0.872275        -0.043333        -0.224973
 H         0.160977        -1.162827        -1.271236
 H        -0.030184        -1.528768         0.475943
 H         1.575210         1.012978        -1.954357
 H         1.302642         2.147916        -0.755249
 H         3.982677         1.382280        -2.237825
 H         5.227755         0.378189        -1.287507
 H         2.979239        -1.490779         0.090945
 H         1.782781        -0.136675         2.252637
 H         0.973926         1.275322         1.672975
