19
Iteration:  4132
 C        -0.004607        -0.700664        -0.189820
 C         1.387674        -0.153888        -0.228330
 C         1.859060         1.226724        -0.911763
 C         3.176912         0.767121        -0.303230
 C         4.186876         0.522549        -1.337655
 O         3.393925        -0.615671        -1.851340
 C         2.747470        -0.689285        -0.498593
 O         3.001552         1.175877         1.035664
 C         1.720882         0.461333         1.246585
 H        -0.731965        -0.149399         0.438107
 H        -0.438769        -0.642065        -1.169248
 H        -0.163190        -1.768667         0.181836
 H         1.631023         1.089990        -1.937290
 H         1.471802         2.092674        -0.369431
 H         4.300616         1.231363        -2.192136
 H         5.266454         0.157515        -1.063337
 H         3.274330        -1.503816         0.073903
 H         1.894252        -0.496893         1.900776
 H         1.031769         1.241557         1.689045
