19
Iteration:  2558
 C        -0.046029        -0.713278        -0.128597
 C         1.314076        -0.037170        -0.234747
 C         1.715991         1.232019        -0.939680
 C         3.136074         0.792016        -0.372064
 C         4.285669         0.517246        -1.359922
 O         3.524139        -0.647807        -1.784761
 C         2.652413        -0.646617        -0.595899
 O         3.064450         1.105495         1.055406
 C         1.757510         0.408846         1.271144
 H        -1.005529        -0.150516         0.034650
 H        -0.256987        -1.383685        -0.939710
 H         0.061023        -1.355078         0.736780
 H         1.594567         1.125388        -1.978467
 H         1.335626         2.205707        -0.681194
 H         4.583336         1.284628        -2.139898
 H         5.161979         0.460703        -0.787053
 H         2.985415        -1.504804         0.014526
 H         1.900763        -0.466082         1.909941
 H         1.191861         1.243262         1.644474
