19
Iteration:  3465charge 0 multiplicity 1
 C        -0.005608        -0.762713        -0.142035
 C         1.310147         0.004766        -0.121830
 C         1.695034         1.230101        -0.973130
 C         3.116316         0.828188        -0.393819
 C         4.301692         0.513711        -1.317848
 O         3.497679        -0.702801        -1.798731
 C         2.697027        -0.584685        -0.570729
 O         3.058487         1.034646         1.049147
 C         1.786450         0.506857         1.220312
 H        -0.824977        -0.176076         0.401534
 H        -0.366622        -0.915317        -1.218344
 H        -0.154540        -1.803542         0.226328
 H         1.535981         1.041799        -2.085192
 H         1.273662         2.182415        -0.696262
 H         4.447575         1.193623        -2.099118
 H         5.161218         0.106886        -0.782295
 H         3.087953        -1.390823         0.095007
 H         1.859637        -0.238144         2.024333
 H         1.029709         1.273668         1.546018
