19
Iteration:  2604
 C         0.065916        -0.697812        -0.320202
 C         1.358483        -0.081430        -0.132549
 C         1.715647         1.075651        -0.914787
 C         3.209876         0.767052        -0.287399
 C         4.195288         0.538960        -1.431856
 O         3.363425        -0.594614        -1.861082
 C         2.736635        -0.738761        -0.471535
 O         3.044935         1.174606         1.141466
 C         1.779071         0.499663         1.326561
 H        -0.770652         0.115516        -0.457255
 H        -0.048754        -1.280471        -1.214961
 H        -0.418579        -1.139187         0.501430
 H         1.657937         1.152764        -2.068204
 H         1.249986         2.118309        -0.677153
 H         4.417795         1.313653        -2.251578
 H         5.236323         0.138560        -1.328365
 H         3.174285        -1.611098         0.040332
 H         2.030887        -0.239931         2.064385
 H         0.961690         1.210968         1.525596
