19
Iteration:  3281charge 0 multiplicity 1
 C        -0.018471        -0.798918        -0.286559
 C         1.258286         0.034630        -0.088961
 C         1.731310         1.274911        -0.988031
 C         3.115282         0.741436        -0.353166
 C         4.230356         0.523567        -1.454066
 O         3.552652        -0.710053        -1.818863
 C         2.572699        -0.659916        -0.354226
 O         3.110398         1.093324         1.016782
 C         1.793153         0.509198         1.323284
 H        -0.826320        -0.217313         0.157164
 H        -0.027148        -0.815876        -1.375033
 H         0.142878        -1.757778         0.146838
 H         1.676510         1.072220        -2.104194
 H         1.330273         2.244144        -0.547769
 H         4.206046         1.251540        -2.398296
 H         5.212697         0.394935        -0.949893
 H         3.181884        -1.373013         0.254937
 H         1.823582        -0.368637         2.042692
 H         1.235586         1.354423         1.858793
