19
Iteration:  2816
 C        -0.006996        -0.780422        -0.265753
 C         1.379425        -0.157838        -0.140189
 C         1.788221         1.107102        -0.955375
 C         3.158152         0.752446        -0.320029
 C         4.300230         0.519142        -1.357869
 O         3.351156        -0.453445        -1.862719
 C         2.709249        -0.699311        -0.452009
 O         3.031301         1.076785         0.999808
 C         1.726986         0.571145         1.361019
 H        -0.686208         0.001812        -0.147729
 H        -0.156285        -1.257817        -1.232650
 H        -0.099189        -1.394592         0.659043
 H         1.692362         1.236908        -2.046451
 H         1.220574         2.023770        -0.441899
 H         4.380647         1.279829        -2.082168
 H         5.329775         0.083121        -1.203135
 H         3.240090        -1.588183        -0.083084
 H         1.852728        -0.158614         2.153135
 H         1.194894         1.473197         1.623513
