19
Iteration:  4523charge 0 multiplicity 1
 C         0.008250        -0.758343        -0.254546
 C         1.290971        -0.077431        -0.176096
 C         1.766691         1.254319        -0.921866
 C         3.125178         0.881222        -0.329677
 C         4.202919         0.450336        -1.378658
 O         3.443639        -0.652137        -1.760446
 C         2.710832        -0.635509        -0.451446
 O         3.058736         1.154014         1.007207
 C         1.830991         0.395973         1.244923
 H        -0.796030        -0.231089         0.244890
 H        -0.302235        -0.550882        -1.271029
 H        -0.073284        -1.837779         0.054285
 H         1.549323         1.131606        -2.022153
 H         1.303551         2.154271        -0.664345
 H         4.362688         1.211227        -2.250628
 H         5.154545         0.183594        -0.953594
 H         3.037059        -1.398247         0.207093
 H         2.072078        -0.478285         1.934006
 H         1.181369         1.080045         1.813627
