19
Iteration:  4756charge 0 multiplicity 1
 C        -0.068755        -0.683993        -0.223066
 C         1.375367        -0.113204        -0.127797
 C         1.749238         1.142766        -0.997930
 C         3.180884         0.745543        -0.307635
 C         4.223260         0.498604        -1.348895
 O         3.387137        -0.564989        -1.842252
 C         2.745722        -0.730276        -0.469685
 O         3.052668         1.233833         1.022633
 C         1.794694         0.469643         1.283806
 H        -0.974607         0.004004        -0.297124
 H        -0.115109        -1.162849        -1.237985
 H        -0.256782        -1.435379         0.533313
 H         1.606374         1.024109        -2.055379
 H         1.542651         2.130163        -0.571583
 H         4.518291         1.143490        -2.106196
 H         5.184657         0.107223        -0.924625
 H         3.194194        -1.549819         0.114893
 H         2.018721        -0.475537         1.938700
 H         0.994387         0.991303         1.844230
