19
Iteration:  4841charge 0 multiplicity 1
 C        -0.028674        -0.733637        -0.157107
 C         1.387241        -0.067994        -0.288044
 C         1.792899         1.186190        -0.977111
 C         3.131117         0.764457        -0.252064
 C         4.155365         0.542200        -1.360440
 O         3.449745        -0.592147        -1.834114
 C         2.712972        -0.759627        -0.452657
 O         3.114693         1.070820         1.060153
 C         1.721462         0.588261         1.211638
 H        -0.705860        -0.243748         0.554068
 H        -0.601046        -0.898626        -1.101137
 H         0.190298        -1.695689         0.365965
 H         1.913162         1.187044        -1.998573
 H         1.246170         2.104700        -0.694439
 H         4.296604         1.289268        -2.246255
 H         5.103842         0.213722        -0.934543
 H         3.166136        -1.640288         0.049188
 H         1.669315        -0.186836         1.967747
 H         0.981394         1.392606         1.559360
