19
Iteration:  1230
 C        -0.057978        -0.836399        -0.201235
 C         1.332449        -0.173202        -0.109911
 C         1.881548         1.235960        -0.876268
 C         3.186625         0.784262        -0.240505
 C         4.220239         0.595149        -1.404975
 O         3.364298        -0.591358        -1.928098
 C         2.734084        -0.593849        -0.641924
 O         3.104476         1.047296         1.080070
 C         1.665505         0.494197         1.312991
 H        -0.592639        -0.383492        -1.078801
 H         0.131499        -2.030807        -0.144146
 H        -0.804362        -0.497425         0.578708
 H         2.017976         1.165769        -1.974626
 H         1.480662         2.282047        -0.571491
 H         4.419349         1.424072        -2.096832
 H         5.276607         0.090060        -1.107166
 H         3.056760        -1.465370        -0.052529
 H         1.667572         0.013688         2.299492
 H         1.051589         1.448153         1.486532
