19
Iteration:  2887
 C        -0.061745        -0.714041        -0.236779
 C         1.377069        -0.064609        -0.155779
 C         1.744027         1.214375        -0.914114
 C         3.149360         0.810337        -0.316343
 C         4.151908         0.513071        -1.390189
 O         3.516543        -0.677441        -1.806606
 C         2.768177        -0.649178        -0.502574
 O         3.028332         1.169168         1.006274
 C         1.749697         0.392436         1.287227
 H        -0.765479        -0.332904         0.601706
 H        -0.415610        -0.430847        -1.245728
 H         0.086438        -1.751554        -0.010444
 H         1.731063         1.121967        -1.994745
 H         1.173984         2.057392        -0.615286
 H         4.168806         1.438493        -2.151721
 H         5.186383         0.230611        -1.089704
 H         3.105858        -1.411819         0.207891
 H         2.207468        -0.368696         1.842219
 H         1.018811         0.970350         1.832961
