19
Iteration:   952charge 0 multiplicity 1
 C        -0.013972        -0.802779        -0.282982
 C         1.308907        -0.012419        -0.193727
 C         1.634678         1.408715        -0.764663
 C         3.171071         0.804900        -0.340624
 C         4.292993         0.559930        -1.359557
 O         3.364501        -0.578748        -1.890013
 C         2.657878        -0.584182        -0.573109
 O         3.175939         1.015393         1.057455
 C         1.862847         0.309586         1.301860
 H        -0.584029        -0.918174         0.712893
 H        -0.827302        -0.399610        -1.120434
 H         0.161370        -1.903964        -0.673010
 H         1.353378         1.553864        -1.861108
 H         1.211489         2.154167         0.011420
 H         4.458032         1.303470        -2.034159
 H         5.148255        -0.150858        -1.049086
 H         2.914660        -1.471711        -0.049996
 H         2.030471        -0.722104         1.718498
 H         1.273919         0.791164         2.045985
