19
Iteration:  3866
 C         0.026313        -0.803258        -0.297029
 C         1.377697        -0.056003        -0.192762
 C         1.770592         1.264782        -0.894335
 C         3.185094         0.869908        -0.296791
 C         4.235420         0.399673        -1.373097
 O         3.314619        -0.575407        -1.789389
 C         2.738014        -0.730668        -0.492389
 O         3.016775         1.273975         1.027137
 C         1.799820         0.385231         1.287749
 H        -0.875915        -0.136242        -0.359925
 H        -0.024527        -1.478664        -1.219056
 H        -0.117357        -1.479184         0.575035
 H         1.627794         1.320283        -2.040848
 H         1.500350         2.153711        -0.460337
 H         4.336881         1.217046        -2.191639
 H         5.081465        -0.162151        -0.970662
 H         3.166101        -1.677487        -0.036681
 H         2.155778        -0.398828         2.040263
 H         1.003701         0.939462         1.795253
