19
Iteration:  2910charge 0 multiplicity 1
 C        -0.091431        -0.801463        -0.306885
 C         1.355877        -0.144802        -0.066786
 C         1.770590         1.119164        -0.959108
 C         3.158135         0.800027        -0.396992
 C         4.312581         0.589454        -1.385537
 O         3.334434        -0.570646        -1.839703
 C         2.737722        -0.741039        -0.508139
 O         3.094879         1.152266         1.102768
 C         1.784492         0.550777         1.357180
 H        -0.981247        -0.361631         0.301212
 H        -0.147211        -0.595055        -1.388810
 H        -0.024310        -1.824548         0.021842
 H         1.697758         1.085855        -1.996997
 H         1.296676         1.985046        -0.635173
 H         4.444529         1.432148        -2.205891
 H         5.290775         0.205507        -0.979711
 H         3.122835        -1.558250         0.087441
 H         1.780162        -0.075318         2.239188
 H         1.070986         1.354688         1.377164
