19
Iteration:  2909charge 0 multiplicity 1
 C        -0.082758        -0.794148        -0.310428
 C         1.341940        -0.146227        -0.074942
 C         1.762009         1.117514        -0.956172
 C         3.159248         0.801385        -0.392768
 C         4.315659         0.586252        -1.391587
 O         3.342912        -0.575449        -1.841526
 C         2.734564        -0.742434        -0.505381
 O         3.093671         1.160663         1.107722
 C         1.791860         0.543851         1.363789
 H        -0.949979        -0.376689         0.341328
 H        -0.168723        -0.579624        -1.395479
 H        -0.052348        -1.813327         0.036737
 H         1.683474         1.063910        -2.038714
 H         1.297333         2.014634        -0.607617
 H         4.450118         1.436873        -2.242013
 H         5.294706         0.235295        -0.977372
 H         3.122633        -1.573363         0.088027
 H         1.746975        -0.090248         2.202273
 H         1.076244         1.344532         1.377939
