19
Iteration:  3929charge 0 multiplicity 1
 C        -0.107762        -0.688416        -0.193646
 C         1.380668        -0.189158        -0.162808
 C         1.794612         1.111837        -0.937681
 C         3.166130         0.803201        -0.335496
 C         4.217162         0.594189        -1.317160
 O         3.426583        -0.588973        -1.839428
 C         2.800881        -0.736700        -0.512435
 O         3.075987         1.108085         1.029170
 C         1.689020         0.510689         1.270789
 H        -0.837154         0.025110         0.186497
 H        -0.335630        -0.993129        -1.199314
 H        -0.159506        -1.577407         0.343742
 H         1.752053         1.274144        -2.092593
 H         1.554150         2.123118        -0.518637
 H         4.327063         1.481331        -2.073471
 H         5.235987         0.321939        -1.189601
 H         3.196547        -1.625983         0.062647
 H         1.631418        -0.224748         2.093914
 H         1.062932         1.436791         1.443508
