19
Iteration:  3653charge 0 multiplicity 1
 C        -0.122064        -0.675401        -0.250608
 C         1.277363        -0.095836        -0.075601
 C         1.730370         1.145766        -0.923586
 C         3.062800         0.756509        -0.337497
 C         4.310245         0.525441        -1.284004
 O         3.479181        -0.636940        -1.926447
 C         2.775449        -0.706474        -0.588804
 O         3.014094         1.237434         0.992948
 C         1.879967         0.434401         1.399998
 H        -0.968108         0.010884        -0.003904
 H        -0.090696        -1.001287        -1.286972
 H        -0.118157        -1.695689         0.208793
 H         1.535921         0.920194        -1.934634
 H         1.307683         2.150952        -0.758840
 H         4.601267         1.358964        -1.973481
 H         5.193102         0.049008        -0.758734
 H         3.374699        -1.426075         0.047858
 H         2.010111        -0.319070         2.191492
 H         1.046316         1.154563         1.752122
