19
Iteration:  4384
 C        -0.102009        -0.720042        -0.220582
 C         1.301878        -0.147116        -0.183773
 C         1.744870         1.152489        -0.937801
 C         3.136466         0.816730        -0.288181
 C         4.225492         0.723140        -1.368806
 O         3.446435        -0.670092        -1.760788
 C         2.788406        -0.745534        -0.461590
 O         3.159111         1.052452         1.028655
 C         1.726055         0.515203         1.175895
 H        -0.795877         0.126958        -0.097137
 H        -0.408685        -1.074933        -1.202637
 H        -0.161779        -1.399550         0.676762
 H         1.757523         1.111573        -2.106451
 H         1.033703         2.027019        -0.688730
 H         4.243060         1.492123        -2.120178
 H         5.232201         0.387732        -1.116601
 H         3.247063        -1.665368         0.139460
 H         1.890643        -0.252843         1.951042
 H         1.180028         1.404321         1.529777
