19
Iteration:   132charge 0 multiplicity 1
 C         0.068651        -0.676775        -0.245185
 C         1.388875        -0.060394        -0.120209
 C         1.607983         1.490694        -0.344517
 C         3.080413         0.878843        -0.256135
 C         4.060491         0.869352        -1.409808
 O         3.149067        -0.090058        -2.153939
 C         2.608859        -0.463814        -0.809531
 O         3.357523         0.455627         1.070454
 C         2.080673        -0.318509         1.261092
 H        -0.135148        -0.799218        -1.307597
 H        -0.027898        -1.595961         0.339417
 H        -0.638386         0.001151         0.159856
 H         1.324458         1.786465        -1.339412
 H         1.368677         2.135129         0.446046
 H         4.204038         1.767752        -1.953332
 H         4.940574         0.323766        -1.175162
 H         3.016707        -1.476765        -0.586534
 H         2.315625        -1.382962         1.561000
 H         1.528816         0.180326         2.101875
