19
Iteration:  4213charge 0 multiplicity 1
 C        -0.058956        -0.760234        -0.283822
 C         1.247208        -0.007374        -0.118277
 C         1.680284         1.347879        -0.863742
 C         3.135985         0.871239        -0.316604
 C         4.239676         0.458818        -1.403093
 O         3.553409        -0.746226        -1.830995
 C         2.686093        -0.591270        -0.490266
 O         3.047322         1.172366         1.034063
 C         1.851582         0.320819         1.272712
 H        -0.943055        -0.062181        -0.237675
 H        -0.004076        -1.384263        -1.227949
 H        -0.137097        -1.504348         0.496718
 H         1.609650         1.286931        -1.943535
 H         1.365785         2.357528        -0.565423
 H         4.358270         0.894716        -2.394394
 H         5.259427         0.278697        -0.894578
 H         3.078387        -1.318548         0.161255
 H         2.099386        -0.581853         1.847340
 H         1.075795         0.959102         1.778058
