19
Iteration:   331charge 0 multiplicity 1
 C        -0.048968        -0.832789        -0.274628
 C         1.305824        -0.058278        -0.080727
 C         1.745191         1.437567        -0.455691
 C         3.176131         0.843131        -0.302737
 C         4.121446         0.786981        -1.472876
 O         3.215029        -0.206901        -2.082404
 C         2.608848        -0.455018        -0.754194
 O         3.390324         0.562508         1.074568
 C         1.892409        -0.042774         1.365589
 H        -0.197855        -1.160116        -1.330908
 H        -0.139020        -1.584752         0.503759
 H        -0.785026        -0.130437        -0.127096
 H         1.649213         1.783624        -1.463415
 H         1.348930         2.172673         0.139138
 H         4.112198         1.785891        -2.027250
 H         5.155985         0.429619        -1.306122
 H         3.059898        -1.369000        -0.430436
 H         2.006446        -1.050738         1.779802
 H         1.251792         0.704561         1.915277
