19
Iteration:  3124
 C         0.015299        -0.764418        -0.291464
 C         1.378983        -0.090177        -0.154940
 C         1.846661         1.101395        -0.972534
 C         3.194035         0.741469        -0.310444
 C         4.176760         0.528651        -1.398947
 O         3.309847        -0.564845        -1.825054
 C         2.723187        -0.668112        -0.390235
 O         3.072081         1.218482         1.038382
 C         1.769276         0.430734         1.301163
 H        -0.768089        -0.017199        -0.255222
 H        -0.229070        -1.140638        -1.294819
 H        -0.326929        -1.439017         0.523011
 H         1.732182         1.068585        -2.051527
 H         1.423985         2.051137        -0.679563
 H         4.163711         1.409516        -1.994752
 H         5.241973         0.184197        -1.063591
 H         3.121306        -1.571479         0.085159
 H         1.891415        -0.235061         2.201544
 H         1.144210         1.298394         1.557187
