19
Iteration:  3912charge 0 multiplicity 1
 C         0.013115        -0.751096        -0.240160
 C         1.269052        -0.037363        -0.098002
 C         1.706486         1.221035        -0.897725
 C         3.116042         0.748901        -0.343633
 C         4.282976         0.562538        -1.424088
 O         3.517241        -0.629019        -1.858566
 C         2.725586        -0.632568        -0.523283
 O         3.082950         1.019782         1.085403
 C         1.751746         0.530139         1.264918
 H        -0.817378        -0.011374        -0.101930
 H        -0.250891        -1.331532        -1.200440
 H        -0.257389        -1.555160         0.547634
 H         1.569474         0.964070        -1.920025
 H         1.153405         2.171188        -0.784913
 H         4.364579         1.249153        -2.267187
 H         5.194704         0.312082        -0.794594
 H         3.042944        -1.422119         0.171631
 H         1.762705        -0.172673         2.155106
 H         1.018285         1.263353         1.538859
