19
Iteration:   105charge 0 multiplicity 1
 C        -0.144241        -0.748061        -0.190277
 C         1.303028        -0.109884        -0.091685
 C         1.740808         1.415334        -0.362569
 C         3.205359         0.718520        -0.229447
 C         4.104750         0.967606        -1.531270
 O         3.176778         0.052133        -2.268956
 C         2.677115        -0.532990        -0.848227
 O         3.356505         0.481970         1.222755
 C         2.006809        -0.230020         1.322129
 H        -0.019058        -1.523729        -0.998788
 H        -0.563387        -1.224339         0.732243
 H        -0.968724         0.034788        -0.516477
 H         1.569621         1.742174        -1.413602
 H         1.584987         2.164430         0.479639
 H         3.951521         2.037277        -1.905085
 H         5.122757         0.435080        -1.606739
 H         3.142808        -1.573040        -0.745989
 H         2.226764        -1.263176         1.604846
 H         1.454097         0.281658         2.108335
