19
Iteration:   721charge 0 multiplicity 1
 C        -0.052316        -0.721323        -0.163270
 C         1.302172        -0.082013        -0.114594
 C         1.751480         1.352815        -0.734660
 C         3.153594         0.846574        -0.304955
 C         4.218740         0.573520        -1.413979
 O         3.348725        -0.342649        -2.033622
 C         2.690365        -0.623340        -0.666815
 O         3.081648         0.980697         1.097433
 C         1.935287         0.022150         1.291413
 H        -0.325935        -1.099095         0.832323
 H        -0.796579         0.042391        -0.469474
 H        -0.149445        -1.532262        -0.974953
 H         1.465802         1.471446        -1.811826
 H         1.447197         2.314369        -0.157101
 H         4.607943         1.329621        -2.100030
 H         5.089816         0.082421        -0.757849
 H         3.053174        -1.548319        -0.236554
 H         2.272677        -0.852920         1.896306
 H         1.210803         0.589581         1.862719
