19
Iteration:  3257
 C        -0.017888        -0.811367        -0.296159
 C         1.311159        -0.020160        -0.138605
 C         1.783840         1.201938        -0.958138
 C         3.170523         0.865477        -0.314433
 C         4.177850         0.518140        -1.444629
 O         3.403136        -0.747946        -1.736185
 C         2.727878        -0.607097        -0.552200
 O         3.157897         1.055808         1.086526
 C         1.689453         0.588504         1.312067
 H        -0.742149        -0.464866         0.423762
 H        -0.238556        -0.759116        -1.383744
 H         0.332111        -1.844490        -0.093307
 H         1.671308         1.058295        -1.986973
 H         1.366678         2.121414        -0.502874
 H         4.108579         1.216611        -2.329601
 H         5.235222         0.279299        -1.013344
 H         3.140569        -1.444162         0.078368
 H         1.700603         0.000215         2.238144
 H         1.092020         1.501373         1.503864
