19
Iteration:  1646
 C        -0.048827        -0.748192        -0.171279
 C         1.305618        -0.021286        -0.144258
 C         1.762496         1.211306        -0.882249
 C         3.175452         0.793981        -0.396576
 C         4.277931         0.527560        -1.368451
 O         3.444902        -0.569297        -1.866493
 C         2.672482        -0.596988        -0.498740
 O         3.085919         1.098964         1.010167
 C         1.765193         0.334882         1.216556
 H        -0.381248        -1.290993        -1.057685
 H        -0.101716        -1.501872         0.711187
 H        -0.947085        -0.081415        -0.010173
 H         1.545281         1.203905        -1.973569
 H         1.358880         2.117962        -0.351954
 H         4.624827         1.356367        -1.896675
 H         5.260378         0.014513        -0.838236
 H         3.007723        -1.425815         0.208107
 H         1.850032        -0.497206         1.871781
 H         1.124197         1.038740         1.799142
