19
Iteration:  3207
 C        -0.053750        -0.756830        -0.165109
 C         1.280477        -0.059213        -0.134624
 C         1.744261         1.199136        -1.002106
 C         3.121306         0.772867        -0.415682
 C         4.323996         0.429417        -1.319094
 O         3.472747        -0.600633        -1.897610
 C         2.640373        -0.671753        -0.465087
 O         3.014659         1.284411         1.012057
 C         1.825271         0.396116         1.361954
 H        -0.679231         0.113729         0.146689
 H        -0.065349        -0.987806        -1.235228
 H        -0.194349        -1.685016         0.394363
 H         1.913511         0.923237        -2.119397
 H         1.389500         2.228556        -0.757618
 H         4.645345         1.249855        -1.983114
 H         5.119305         0.038365        -0.784309
 H         2.963302        -1.536734         0.130803
 H         2.238736        -0.462303         1.905725
 H         1.038175         0.888272         1.973790
