19
Iteration:  3114charge 0 multiplicity 1
 C         0.020123        -0.746293        -0.330255
 C         1.334544        -0.127623        -0.191055
 C         1.729779         1.151375        -0.941575
 C         3.141644         0.790778        -0.289243
 C         4.214282         0.455373        -1.351140
 O         3.298932        -0.591660        -1.817604
 C         2.748887        -0.659189        -0.496614
 O         3.052133         1.203521         1.039466
 C         1.881064         0.536021         1.367977
 H        -0.754984        -0.055139        -0.142687
 H         0.048808        -1.165836        -1.354506
 H        -0.025139        -1.653154         0.322734
 H         1.896637         1.019244        -1.992684
 H         1.311713         2.046342        -0.465085
 H         4.400704         1.192860        -2.133432
 H         5.187720        -0.020535        -1.049924
 H         3.271809        -1.408247         0.134057
 H         1.962888        -0.304843         2.131924
 H         0.988146         1.180226         1.614421
