19
Iteration:  3899charge 0 multiplicity 1
 C        -0.012677        -0.795597        -0.255387
 C         1.299435         0.038635        -0.125863
 C         1.636719         1.286819        -0.980543
 C         3.128718         0.882388        -0.392229
 C         4.234998         0.488678        -1.348562
 O         3.493524        -0.657004        -1.806681
 C         2.709040        -0.634764        -0.533382
 O         3.117162         1.035642         1.060073
 C         1.736734         0.437593         1.371136
 H        -0.947834        -0.221859        -0.353796
 H         0.175455        -1.411422        -1.186846
 H         0.026485        -1.401909         0.637230
 H         1.652324         1.002272        -2.067185
 H         1.437482         2.267919        -0.738334
 H         4.375354         1.257761        -2.235297
 H         5.282835         0.169637        -1.037710
 H         3.169552        -1.483013         0.067803
 H         1.810192        -0.521914         2.016000
 H         1.205315         1.261181         1.854778
