19
Iteration:   266charge 0 multiplicity 1
 C        -0.098561        -0.609610        -0.192499
 C         1.371095        -0.140018        -0.174329
 C         1.741940         1.353558        -0.538427
 C         3.158875         0.769619        -0.235182
 C         4.155318         0.794460        -1.459592
 O         3.085837        -0.069327        -2.122799
 C         2.751883        -0.592428        -0.803242
 O         3.202487         0.692984         1.186264
 C         2.090173        -0.191490         1.323472
 H        -0.237657        -1.618872         0.302042
 H        -0.827484         0.101832         0.227273
 H        -0.308223        -0.750081        -1.213812
 H         1.584441         1.706360        -1.565349
 H         1.316788         1.948198         0.295469
 H         4.273408         1.734627        -2.049616
 H         5.022460         0.282205        -1.367103
 H         3.313439        -1.472812        -0.552363
 H         2.496416        -1.234947         1.468752
 H         1.454228         0.141986         2.221295
