19
Iteration:  4877
 C        -0.077181        -0.696208        -0.124350
 C         1.288030        -0.087499        -0.157117
 C         1.749253         1.247600        -0.982854
 C         3.141975         0.802668        -0.395227
 C         4.290853         0.391460        -1.313672
 O         3.506630        -0.582285        -1.922308
 C         2.736315        -0.676979        -0.485974
 O         2.955626         1.236804         1.018224
 C         1.812925         0.395999         1.330080
 H        -0.939752        -0.068275         0.335979
 H        -0.348301        -0.938627        -1.188692
 H        -0.046532        -1.705036         0.261656
 H         1.675484         0.961804        -2.037331
 H         1.300348         2.138449        -0.699542
 H         4.738899         1.064519        -1.994313
 H         5.112010        -0.010458        -0.631016
 H         3.164276        -1.523568         0.004159
 H         2.277384        -0.490982         1.860247
 H         1.116582         1.004789         1.927990
