19
Iteration:  3429
 C        -0.025011        -0.765941        -0.331855
 C         1.334012        -0.115529        -0.088319
 C         1.768942         1.109276        -0.972906
 C         3.271591         0.757155        -0.283040
 C         4.274976         0.431607        -1.368292
 O         3.279305        -0.585625        -1.787482
 C         2.701210        -0.674462        -0.435928
 O         2.993509         1.315930         1.048898
 C         1.867229         0.491114         1.215123
 H        -0.743411        -0.252815         0.275680
 H        -0.245090        -0.409033        -1.333265
 H         0.041798        -1.847203        -0.129657
 H         1.583329         0.973123        -2.009493
 H         1.429371         2.139637        -0.551950
 H         4.409614         1.210703        -2.082358
 H         5.257818        -0.053156        -1.125777
 H         2.989901        -1.548341         0.102279
 H         2.205203        -0.352979         1.932007
 H         1.140643         1.083489         1.756444
