19
Iteration:  1021
 C        -0.049957        -0.667766        -0.225503
 C         1.349087        -0.174442        -0.133756
 C         1.764307         1.183078        -0.828049
 C         3.153064         0.872508        -0.299313
 C         4.209049         0.612173        -1.388405
 O         3.424411        -0.527771        -1.934963
 C         2.670578        -0.717800        -0.633287
 O         3.096842         1.045639         1.085237
 C         1.839425         0.364567         1.338751
 H        -0.112354        -1.732498         0.192624
 H        -0.778373         0.074374         0.392181
 H        -0.367394        -0.659109        -1.274112
 H         1.709143         1.177842        -1.898222
 H         1.315716         2.077919        -0.426070
 H         4.265569         1.418674        -2.148107
 H         5.178147         0.307666        -0.912926
 H         2.980721        -1.685570        -0.223278
 H         2.052444        -0.412205         2.050370
 H         0.949153         0.899311         1.705823
