19
Iteration:  4967
 C         0.019558        -0.775820        -0.287357
 C         1.344981        -0.092358        -0.189952
 C         1.842756         1.139195        -0.929958
 C         3.205005         0.783292        -0.310315
 C         4.234629         0.552915        -1.361229
 O         3.233685        -0.594996        -1.813672
 C         2.791067        -0.668836        -0.463648
 O         3.097091         1.120378         1.017196
 C         1.706284         0.525338         1.295027
 H        -0.856086        -0.057131        -0.073208
 H        -0.214427        -1.117796        -1.301040
 H         0.056096        -1.610819         0.473635
 H         1.718236         1.090628        -2.020935
 H         1.356252         1.967807        -0.457909
 H         4.428512         1.356961        -2.025608
 H         5.240320         0.170541        -1.011637
 H         3.102029        -1.453064         0.196529
 H         1.965847        -0.148404         2.181610
 H         0.932278         1.250795         1.579471
