19
Iteration:  4844charge 0 multiplicity 1
 C        -0.018825        -0.725658        -0.143460
 C         1.359439        -0.089995        -0.297191
 C         1.810059         1.190847        -0.957527
 C         3.145707         0.751621        -0.271012
 C         4.192671         0.551673        -1.368518
 O         3.432540        -0.585916        -1.832910
 C         2.727057        -0.744758        -0.456797
 O         3.099937         1.084378         1.049980
 C         1.695379         0.578988         1.211536
 H        -0.797677        -0.261125         0.595168
 H        -0.662750        -0.863013        -1.057686
 H         0.196254        -1.644160         0.375144
 H         1.910776         1.034090        -2.040895
 H         1.288045         2.076156        -0.757480
 H         4.359035         1.254526        -2.135534
 H         5.175403         0.203540        -0.932691
 H         3.145440        -1.613522        -0.028280
 H         1.672102        -0.191739         2.065140
 H         1.014711         1.298274         1.666480
