19
Iteration:  2283
 C        -0.045530        -0.794045        -0.203556
 C         1.298309        -0.019812        -0.189437
 C         1.738520         1.214260        -0.942311
 C         3.226830         0.842998        -0.362936
 C         4.269012         0.431687        -1.339882
 O         3.415249        -0.632953        -1.884529
 C         2.725509        -0.642443        -0.520050
 O         3.061706         1.193202         1.090095
 C         1.745116         0.439541         1.317126
 H        -0.935809        -0.344337         0.258476
 H        -0.556972        -1.005809        -1.141194
 H         0.221775        -1.750036         0.218106
 H         1.640396         1.056651        -2.078367
 H         1.360452         2.205868        -0.423092
 H         4.427230         1.170977        -2.200427
 H         5.200733         0.091850        -0.945231
 H         3.275372        -1.387293         0.067167
 H         1.985227        -0.370538         1.942731
 H         1.012816         1.127947         1.734237
