19
Iteration:  2496charge 0 multiplicity 1
 C         0.000993        -0.751179        -0.296461
 C         1.338270        -0.102584        -0.125203
 C         1.798048         1.189902        -0.956056
 C         3.188992         0.742430        -0.343977
 C         4.143776         0.540248        -1.391776
 O         3.377055        -0.675392        -1.849784
 C         2.748826        -0.698730        -0.483510
 O         3.074197         1.215642         1.123564
 C         1.782591         0.527895         1.317383
 H        -0.794945        -0.267498         0.326860
 H        -0.336447        -0.468083        -1.312780
 H         0.133812        -1.847888        -0.355958
 H         1.685653         0.919320        -2.063178
 H         1.322538         2.209334        -0.588913
 H         4.360714         1.181404        -2.245762
 H         5.115309         0.093538        -0.931750
 H         3.326437        -1.390819         0.132776
 H         1.760141        -0.226583         2.172282
 H         0.944904         1.198384         1.675447
