19
Iteration:  1457
 C        -0.097872        -0.741148        -0.237760
 C         1.302974        -0.075653        -0.269373
 C         1.772842         1.231783        -0.902319
 C         3.201559         0.758967        -0.324178
 C         4.143000         0.609045        -1.473812
 O         3.508423        -0.599814        -1.779380
 C         2.638233        -0.682128        -0.517842
 O         3.172527         1.037662         1.140819
 C         1.786935         0.463960         1.299014
 H        -0.664086        -0.595354        -1.213748
 H         0.199864        -1.781866        -0.202156
 H        -0.601034        -0.487122         0.760538
 H         1.559917         1.186108        -1.985484
 H         1.241098         2.190461        -0.590936
 H         4.130335         1.393356        -2.152503
 H         5.241456         0.416217        -1.251487
 H         3.042803        -1.546947         0.134594
 H         1.806428        -0.300118         2.085225
 H         0.939852         1.159515         1.581272
