19
Iteration:  1583charge 0 multiplicity 1
 C        -0.157257        -0.802188        -0.291458
 C         1.342392        -0.085764        -0.142916
 C         1.785156         1.250159        -0.864042
 C         3.197818         0.814778        -0.327102
 C         4.213357         0.622290        -1.450138
 O         3.392677        -0.572649        -1.842111
 C         2.730072        -0.709752        -0.456169
 O         3.142850         1.043439         1.083426
 C         1.819024         0.443012         1.314129
 H        -0.103063        -1.678530        -0.914530
 H        -0.595274        -0.965859         0.677743
 H        -0.717306        -0.106503        -0.825813
 H         1.589794         1.309643        -1.990271
 H         1.348379         2.226876        -0.397192
 H         4.271255         1.424142        -2.252777
 H         5.127360         0.196767        -1.288813
 H         3.150404        -1.554568         0.050443
 H         1.856627        -0.538594         1.894028
 H         1.097489         1.182752         1.633883
