19
Iteration:   467charge 0 multiplicity 1
 C         0.001933        -0.765255        -0.296402
 C         1.346033        -0.115916        -0.081253
 C         1.789851         1.326002        -0.606712
 C         3.170532         0.747528        -0.251869
 C         4.156167         0.704551        -1.419004
 O         3.106890        -0.151663        -2.091868
 C         2.645416        -0.619541        -0.794409
 O         3.159597         0.854944         1.176456
 C         2.072876         0.018810         1.404916
 H        -0.467871        -1.129314         0.567948
 H        -0.667315        -0.026536        -0.712100
 H        -0.034435        -1.579168        -1.081574
 H         1.737238         1.618385        -1.703491
 H         1.404095         2.255092         0.004968
 H         4.466305         1.537803        -2.060563
 H         4.993958         0.078969        -1.202862
 H         3.122725        -1.612995        -0.711715
 H         2.381662        -1.049745         1.815168
 H         1.354083         0.529685         2.097688
