19
Iteration:  1268charge 0 multiplicity 1
 C         0.091717        -0.757194        -0.270846
 C         1.332589        -0.025960        -0.151629
 C         1.702992         1.327970        -0.902305
 C         3.150186         0.852752        -0.299346
 C         4.218630         0.494782        -1.314385
 O         3.335005        -0.648567        -1.828539
 C         2.643362        -0.575621        -0.574159
 O         3.132644         1.097738         1.050220
 C         1.791040         0.328984         1.271743
 H        -0.441372        -0.663359        -1.219318
 H         0.302469        -1.815883        -0.244501
 H        -0.552565        -0.617300         0.617117
 H         1.733922         1.174807        -1.973226
 H         1.185060         2.220334        -0.647880
 H         4.569915         1.167632        -2.129342
 H         5.076904         0.099217        -0.887699
 H         3.075148        -1.433232        -0.003432
 H         2.092941        -0.546879         1.874336
 H         1.061224         0.905332         1.789130
