19
Iteration:  2368
 C        -0.024008        -0.715799        -0.196143
 C         1.293784         0.010346        -0.182683
 C         1.770706         1.229013        -0.898442
 C         3.210104         0.787636        -0.360368
 C         4.170041         0.626364        -1.474412
 O         3.487554        -0.696801        -1.775415
 C         2.741345        -0.703926        -0.473609
 O         3.074885         1.027782         1.075155
 C         1.698398         0.467195         1.222220
 H        -0.700518         0.014357         0.208987
 H        -0.135885        -1.243019        -1.184301
 H         0.005598        -1.449540         0.700818
 H         1.699687         1.243839        -2.015656
 H         1.184204         2.125685        -0.699391
 H         4.281613         1.348889        -2.382010
 H         5.201634         0.373810        -1.116623
 H         3.180144        -1.410906         0.324632
 H         1.717111        -0.469976         1.836858
 H         1.001282         1.176835         1.722666
