19
Iteration:  2641
 C         0.027601        -0.810246        -0.331200
 C         1.303493         0.000408        -0.139760
 C         1.723270         1.255443        -0.933111
 C         3.134545         0.887959        -0.355653
 C         4.220200         0.485069        -1.439431
 O         3.375752        -0.703478        -1.799377
 C         2.648935        -0.621980        -0.458672
 O         3.081981         1.163065         1.072520
 C         1.857510         0.414228         1.318747
 H        -0.781744        -0.184594        -0.070606
 H         0.010491        -1.002730        -1.435904
 H         0.077643        -1.830287         0.138372
 H         1.820614         1.157502        -2.009257
 H         1.349789         2.199331        -0.445549
 H         4.664816         1.176804        -2.086407
 H         4.889763        -0.012636        -0.689049
 H         3.071289        -1.369716         0.232636
 H         2.097565        -0.408346         1.936207
 H         1.239094         1.015048         1.957462
