19
Iteration:  1483charge 0 multiplicity 1
 C        -0.047808        -0.737708        -0.206355
 C         1.288946        -0.018273        -0.064646
 C         1.757059         1.253712        -0.880699
 C         3.175899         0.829508        -0.358643
 C         4.239399         0.554465        -1.380620
 O         3.434888        -0.627028        -1.866307
 C         2.790155        -0.608112        -0.556620
 O         3.026239         1.021979         0.987014
 C         1.765649         0.381323         1.326104
 H        -0.376621        -0.540627        -1.185113
 H         0.120364        -1.817999        -0.058639
 H        -0.723677        -0.361650         0.503037
 H         1.622484         1.017616        -1.982285
 H         1.260029         2.335711        -0.797273
 H         4.574003         1.299977        -2.141161
 H         5.119201         0.158786        -0.866014
 H         3.234965        -1.451690         0.004820
 H         1.934033        -0.459607         2.079835
 H         0.980258         1.061171         1.797440
