19
Iteration:  2700
 C        -0.066305        -0.711159        -0.142832
 C         1.321739        -0.119371        -0.189819
 C         1.799221         1.148393        -0.996281
 C         3.210157         0.720243        -0.236282
 C         4.246719         0.556239        -1.353291
 O         3.448416        -0.558812        -1.861784
 C         2.769695        -0.705800        -0.593994
 O         3.050021         1.175607         1.064383
 C         1.678917         0.462451         1.289798
 H        -0.676571        -0.307964         0.749226
 H        -0.703838        -0.548575        -1.020259
 H         0.011296        -1.770966         0.164586
 H         1.769017         0.950163        -2.062770
 H         1.332138         2.061701        -0.954104
 H         4.511912         1.467935        -1.989292
 H         5.136317         0.030596        -1.169109
 H         3.124796        -1.540416         0.041364
 H         1.758096        -0.336660         2.123434
 H         0.998720         1.335992         1.377830
