19
Iteration:   103
 C        -0.145772        -0.741288        -0.183830
 C         1.306313        -0.108296        -0.096830
 C         1.735586         1.416884        -0.378333
 C         3.220415         0.698899        -0.225132
 C         4.104964         0.964476        -1.523706
 O         3.171459         0.068779        -2.287451
 C         2.683803        -0.558139        -0.850355
 O         3.363074         0.493924         1.238211
 C         2.006815        -0.239812         1.334916
 H        -0.050332        -1.587492        -0.971126
 H        -0.599346        -1.195549         0.716096
 H        -0.869440        -0.014089        -0.534836
 H         1.544438         1.786752        -1.444960
 H         1.555635         2.175446         0.474025
 H         3.950425         2.071193        -1.868851
 H         5.086738         0.491563        -1.635931
 H         3.035201        -1.576168        -0.750191
 H         2.196423        -1.231686         1.633192
 H         1.411406         0.306555         2.072965
