19
Iteration:   752charge 0 multiplicity 1
 C        -0.061661        -0.730972        -0.215870
 C         1.272576         0.000065        -0.120269
 C         1.677449         1.292656        -0.732072
 C         3.160855         0.749328        -0.275403
 C         4.187578         0.758444        -1.464626
 O         3.403965        -0.449107        -1.952753
 C         2.684339        -0.612212        -0.650337
 O         3.236445         0.785288         1.114291
 C         1.830780         0.218927         1.301755
 H         0.170140        -1.686873         0.292131
 H        -0.814278        -0.158690         0.326096
 H        -0.193340        -0.866969        -1.408054
 H         1.542309         1.425740        -1.827623
 H         1.314350         2.225980        -0.188496
 H         4.149217         1.600379        -2.217196
 H         5.272683         0.549105        -1.238972
 H         2.874427        -1.607736        -0.202603
 H         1.878546        -0.631290         1.936237
 H         1.295516         1.070849         1.656127
