19
Iteration:  4357
 C         0.039865        -0.723792        -0.315729
 C         1.303393        -0.127718        -0.011141
 C         1.759303         1.109069        -0.938295
 C         3.150680         0.796452        -0.299037
 C         4.281654         0.526031        -1.408268
 O         3.411230        -0.614569        -1.932080
 C         2.724723        -0.653114        -0.442784
 O         3.022712         1.134405         1.037534
 C         1.732547         0.527850         1.367590
 H        -0.768373        -0.120502         0.143398
 H        -0.149284        -0.756380        -1.409756
 H        -0.000756        -1.723788         0.119470
 H         1.641812         0.861996        -1.966098
 H         1.277192         2.052919        -0.838021
 H         4.467733         1.388067        -2.165261
 H         5.243168         0.037456        -1.095521
 H         3.231231        -1.470599        -0.039942
 H         1.907591         0.027005         2.321173
 H         1.053742         1.348000         1.647748
