19
Iteration:  2176
 C         0.029763        -0.780328        -0.302376
 C         1.304480         0.001888        -0.171345
 C         1.748049         1.236894        -0.888886
 C         3.186875         0.826000        -0.379739
 C         4.259845         0.498335        -1.422896
 O         3.345400        -0.636030        -1.759264
 C         2.668838        -0.615351        -0.441946
 O         3.046475         1.164050         1.046865
 C         1.813108         0.390635         1.286074
 H        -1.020618        -0.267632        -0.067268
 H         0.115732        -1.233386        -1.311173
 H         0.086060        -1.656950         0.423585
 H         1.633758         1.072763        -1.977914
 H         1.527996         2.244665        -0.601401
 H         4.488126         1.169360        -2.260338
 H         5.229216        -0.163945        -1.065465
 H         2.959802        -1.531824         0.046282
 H         2.187615        -0.439013         2.015085
 H         1.140190         1.089365         1.882947
