19
Iteration:  2593charge 0 multiplicity 1
 C        -0.043407        -0.691933        -0.282077
 C         1.373831        -0.133143        -0.116131
 C         1.828143         1.126239        -0.911163
 C         3.131814         0.791405        -0.347828
 C         4.202176         0.564854        -1.423826
 O         3.391221        -0.603101        -1.842888
 C         2.772545        -0.677034        -0.538108
 O         3.090083         1.115578         1.119983
 C         1.719236         0.488101         1.315950
 H        -0.775508         0.174720        -0.453349
 H        -0.098839        -1.474836        -1.007623
 H        -0.175618        -1.194471         0.639142
 H         1.765738         0.748718        -1.974793
 H         1.421226         2.153784        -0.631933
 H         4.124688         1.267410        -2.286301
 H         5.185631         0.274111        -1.000214
 H         3.205925        -1.485171         0.068504
 H         1.640567        -0.123258         2.175256
 H         0.951764         1.256603         1.508751
