19
Iteration:  2557
 C        -0.041745        -0.709555        -0.127446
 C         1.317391        -0.037993        -0.235903
 C         1.716794         1.238977        -0.941183
 C         3.143133         0.800760        -0.364318
 C         4.278911         0.517058        -1.357792
 O         3.527295        -0.654223        -1.788084
 C         2.646851        -0.643178        -0.599844
 O         3.059425         1.110678         1.046560
 C         1.758392         0.402484         1.273957
 H        -0.974938        -0.162002         0.078589
 H        -0.232249        -1.378703        -0.967232
 H         0.020491        -1.386290         0.754834
 H         1.623230         1.129107        -1.961051
 H         1.319708         2.167626        -0.703539
 H         4.588188         1.275147        -2.135121
 H         5.122200         0.423093        -0.751289
 H         2.969073        -1.520034        -0.009962
 H         1.913768        -0.496260         1.955830
 H         1.184298         1.242807         1.659939
