19
Iteration:   997
 C        -0.056968        -0.714762        -0.181958
 C         1.332998        -0.111770        -0.127299
 C         1.779129         1.204000        -0.921427
 C         3.242450         0.685183        -0.238505
 C         4.267293         0.664805        -1.382791
 O         3.272677        -0.421620        -1.988416
 C         2.805799        -0.734283        -0.545073
 O         3.113730         0.980696         1.085818
 C         1.727426         0.400320         1.302511
 H        -0.168796        -1.397262         0.715611
 H        -0.909689         0.133265        -0.170469
 H        -0.190144        -1.295525        -1.117121
 H         1.734824         1.294555        -2.024043
 H         1.390285         2.127472        -0.398716
 H         4.245639         1.447451        -2.016878
 H         5.327944         0.285851        -1.160073
 H         3.284995        -1.572874        -0.097729
 H         1.733585        -0.346006         2.093987
 H         0.947338         1.074668         1.579000
