19
Iteration:  1991
 C        -0.024733        -0.785345        -0.292691
 C         1.336092        -0.093937        -0.137941
 C         1.775360         1.215628        -0.876312
 C         3.178721         0.780086        -0.341395
 C         4.287687         0.482099        -1.449921
 O         3.342017        -0.607553        -1.848673
 C         2.723959        -0.613897        -0.491671
 O         3.050252         1.196304         1.116960
 C         1.789038         0.447069         1.295039
 H        -0.879883         0.007536        -0.418900
 H         0.014671        -1.468398        -1.133203
 H        -0.225550        -1.346577         0.621964
 H         1.702699         1.211616        -2.018975
 H         1.223790         2.218264        -0.448339
 H         4.621850         1.213799        -2.274814
 H         5.283721        -0.065641        -1.021700
 H         3.050519        -1.534456         0.124357
 H         1.991349        -0.363085         1.982098
 H         0.901123         0.952161         1.665968
