19
Iteration:  3039
 C        -0.073776        -0.700374        -0.162131
 C         1.323050        -0.086209        -0.133425
 C         1.840499         1.141474        -0.944930
 C         3.182311         0.727409        -0.286774
 C         4.260492         0.561840        -1.399516
 O         3.401196        -0.578015        -1.816909
 C         2.802422        -0.714601        -0.550368
 O         3.027715         1.118367         1.041598
 C         1.696562         0.496049         1.237081
 H        -0.654018        -0.005296         0.449764
 H        -0.446207        -0.833576        -1.190093
 H         0.013209        -1.719974         0.148059
 H         1.797533         0.862397        -2.031588
 H         1.267663         2.155899        -0.703859
 H         4.176996         1.427437        -2.127053
 H         5.254666         0.346395        -1.218287
 H         3.371428        -1.404743         0.112750
 H         1.842493        -0.306779         2.006073
 H         0.890755         1.144595         1.671372
