19
Iteration:  3592
 C         0.021845        -0.808114        -0.182266
 C         1.281630         0.045948        -0.198688
 C         1.867519         1.315283        -0.926048
 C         3.184532         0.816478        -0.412149
 C         4.186702         0.495779        -1.501269
 O         3.550933        -0.707951        -1.807294
 C         2.619817        -0.618784        -0.437752
 O         3.028099         1.087795         1.075172
 C         1.643452         0.437841         1.334447
 H        -0.825791        -0.557204         0.368614
 H        -0.395530        -0.981871        -1.162951
 H         0.392567        -1.719855         0.234512
 H         1.909714         1.098521        -1.995927
 H         1.626343         2.348507        -0.588718
 H         4.270247         1.214302        -2.373221
 H         5.196899         0.371454        -1.049118
 H         2.809771        -1.506467         0.155732
 H         1.741837        -0.381401         2.085605
 H         1.099302         1.243759         1.753980
