19
Iteration:    68
 C        -0.053903        -0.637554        -0.179767
 C         1.397237        -0.176428        -0.069785
 C         1.759379         1.282914        -0.399182
 C         3.167205         0.723692        -0.257234
 C         4.073640         0.964069        -1.377967
 O         3.027578         0.168387        -2.141487
 C         2.743550        -0.583503        -0.954061
 O         3.311285         0.441127         1.070976
 C         2.034546        -0.219645         1.306832
 H        -0.079962        -1.727288         0.123025
 H        -0.773549        -0.057213         0.449816
 H        -0.303777        -0.630017        -1.169552
 H         1.497356         1.642927        -1.411641
 H         1.548301         2.100540         0.336520
 H         4.277047         1.999902        -1.777817
 H         4.975728         0.403747        -1.370595
 H         3.167520        -1.535119        -0.801270
 H         2.181316        -1.161612         1.794618
 H         1.380323         0.391139         1.948985
