19
Iteration:  1671charge 0 multiplicity 1
 C        -0.019084        -0.749666        -0.206883
 C         1.345095        -0.024917        -0.178726
 C         1.748570         1.238869        -0.956889
 C         3.099404         0.724341        -0.306442
 C         4.156890         0.575019        -1.402453
 O         3.481770        -0.642426        -1.835204
 C         2.727208        -0.689009        -0.674813
 O         3.084625         1.042496         1.101590
 C         1.793179         0.502384         1.402809
 H        -0.491079        -0.711236        -1.189412
 H         0.119908        -1.768371         0.142528
 H        -0.775788        -0.306678         0.320764
 H         1.864843         1.163400        -2.095988
 H         1.362237         2.296508        -0.603947
 H         4.326055         1.481796        -2.081044
 H         5.151263         0.258308        -1.023017
 H         2.964220        -1.474915         0.025309
 H         1.792973        -0.214730         2.283180
 H         1.165997         1.364531         1.669928
