19
Iteration:  4230charge 0 multiplicity 1
 C        -0.064830        -0.650016        -0.235334
 C         1.357671        -0.023913        -0.127229
 C         1.776645         1.174873        -0.960048
 C         3.152781         0.803588        -0.445101
 C         4.273008         0.558931        -1.452642
 O         3.456013        -0.676846        -1.812466
 C         2.802145        -0.652283        -0.541015
 O         2.943528         1.158442         1.119380
 C         1.762139         0.348150         1.379575
 H        -0.851019         0.118658        -0.249512
 H        -0.204369        -1.326782        -1.061166
 H        -0.377583        -1.360193         0.606167
 H         1.691069         1.000515        -2.088294
 H         1.407926         2.143818        -0.588118
 H         4.434444         1.383269        -2.163649
 H         5.198737         0.127352        -1.031325
 H         3.213966        -1.411261         0.236503
 H         2.132340        -0.580391         1.902036
 H         1.001566         0.910355         1.938190
