19
Iteration:  2443
 C         0.001504        -0.768837        -0.280298
 C         1.305534        -0.056349        -0.202017
 C         1.762325         1.271963        -0.893019
 C         3.169237         0.876114        -0.376985
 C         4.210990         0.504556        -1.336713
 O         3.374673        -0.696656        -1.826927
 C         2.746505        -0.642887        -0.494632
 O         3.068705         1.123401         1.052878
 C         1.763925         0.456026         1.345473
 H        -0.827182        -0.069215        -0.020003
 H        -0.240614        -1.289176        -1.252830
 H         0.198723        -1.498168         0.624466
 H         1.796972         1.103618        -2.008078
 H         1.255226         2.244156        -0.715738
 H         4.362162         1.049842        -2.222217
 H         5.252337         0.273592        -1.057725
 H         3.147511        -1.535026         0.034526
 H         2.093633        -0.566717         1.807358
 H         1.098585         1.194823         1.885058
