19
Iteration:  3961charge 0 multiplicity 1
 C        -0.013693        -0.643926        -0.208555
 C         1.339703        -0.101764        -0.112923
 C         1.801162         1.113990        -0.994363
 C         3.155282         0.827465        -0.326241
 C         4.316572         0.525005        -1.371315
 O         3.421274        -0.632361        -1.853154
 C         2.727922        -0.642989        -0.505508
 O         2.943992         1.209438         1.059831
 C         1.805211         0.371525         1.309441
 H        -0.820633        -0.247134         0.420617
 H        -0.394685        -0.642220        -1.203395
 H        -0.022918        -1.711188        -0.031457
 H         1.724240         0.934975        -2.162448
 H         1.453940         2.164690        -0.760343
 H         4.221594         1.328103        -2.085473
 H         5.216014         0.084333        -1.043178
 H         2.909374        -1.546415         0.125719
 H         1.953882        -0.531273         1.856875
 H         1.085214         0.966893         1.921527
