19
Iteration:  4848charge 0 multiplicity 1
 C        -0.022859        -0.711792        -0.120578
 C         1.301447        -0.109938        -0.273762
 C         1.838729         1.177643        -0.951605
 C         3.178209         0.735239        -0.319817
 C         4.260037         0.548811        -1.357267
 O         3.403646        -0.582866        -1.829134
 C         2.746260        -0.700307        -0.492004
 O         3.069338         1.109218         1.045973
 C         1.666293         0.538390         1.230659
 H        -0.741084        -0.256840         0.545332
 H        -0.641919        -0.847331        -0.976375
 H         0.172276        -1.700003         0.361684
 H         1.894472         0.866704        -2.094700
 H         1.313492         2.175856        -0.763313
 H         4.453683         1.361207        -2.093095
 H         5.233948         0.216045        -0.972839
 H         3.117442        -1.660797        -0.017357
 H         1.745638        -0.174859         2.076516
 H         1.022965         1.283484         1.703913
