19
Iteration:  4267
 C        -0.122213        -0.703583        -0.223676
 C         1.348650        -0.179472        -0.136386
 C         1.758746         1.058793        -0.962732
 C         3.145653         0.714363        -0.272313
 C         4.219249         0.677065        -1.304488
 O         3.430803        -0.574438        -1.862713
 C         2.797919        -0.795048        -0.576141
 O         3.119041         1.147690         1.053136
 C         1.750328         0.579061         1.256917
 H        -0.798423         0.175191         0.018270
 H        -0.441467        -1.056288        -1.241792
 H        -0.222098        -1.390151         0.601004
 H         1.708369         1.177028        -2.015046
 H         1.465128         2.008229        -0.524065
 H         4.435690         1.394879        -2.089006
 H         5.205872         0.154250        -0.939959
 H         3.205233        -1.604527        -0.021937
 H         1.742681        -0.129024         2.153478
 H         0.881445         1.301182         1.466976
