19
Iteration:  2673
 C        -0.000222        -0.790951        -0.164317
 C         1.282528        -0.042661        -0.174332
 C         1.778842         1.261993        -0.918414
 C         3.156496         0.769298        -0.376100
 C         4.263443         0.563499        -1.391418
 O         3.463943        -0.645605        -1.799277
 C         2.677236        -0.617354        -0.488877
 O         3.079904         1.056366         1.009399
 C         1.705077         0.476912         1.243160
 H        -0.664217        -0.505656         0.622639
 H        -0.419293        -0.731259        -1.182788
 H         0.169880        -1.855024         0.080664
 H         1.646591         1.335675        -2.024767
 H         1.372940         2.284418        -0.527501
 H         4.661572         1.234754        -2.103206
 H         5.166553         0.074206        -0.849039
 H         2.976251        -1.442686         0.183829
 H         1.707374        -0.285300         1.966967
 H         1.076252         1.288854         1.541872
