19
Iteration:  3579
 C         0.017209        -0.818705        -0.285229
 C         1.240647         0.064765        -0.097099
 C         1.765078         1.319182        -0.923201
 C         3.130810         0.757829        -0.331622
 C         4.280331         0.521710        -1.445223
 O         3.475471        -0.771426        -1.762007
 C         2.645561        -0.616374        -0.532340
 O         3.055229         1.106465         1.088799
 C         1.800646         0.493337         1.272945
 H        -0.892404        -0.391605         0.224818
 H        -0.049612        -1.102406        -1.331758
 H         0.276987        -1.774285         0.228602
 H         1.543999         1.320755        -1.927435
 H         1.422674         2.308332        -0.585173
 H         4.159861         1.277112        -2.316159
 H         5.293923         0.296781        -1.301802
 H         3.119394        -1.326426         0.206012
 H         1.875797        -0.329206         1.969818
 H         0.950815         1.117272         1.541425
