19
Iteration:  4262charge 0 multiplicity 1
 C        -0.130596        -0.654752        -0.220315
 C         1.392076        -0.171376        -0.149863
 C         1.776427         1.025245        -0.954561
 C         3.162658         0.721289        -0.293462
 C         4.197452         0.648400        -1.298511
 O         3.416150        -0.543845        -1.844377
 C         2.803445        -0.803469        -0.565956
 O         3.117187         1.164174         1.050325
 C         1.744300         0.537545         1.245666
 H        -0.785037         0.165136        -0.011408
 H        -0.382402        -1.135519        -1.146303
 H        -0.281623        -1.416553         0.617038
 H         1.786818         1.208861        -2.097804
 H         1.303483         1.976605        -0.578834
 H         4.351389         1.530977        -1.979825
 H         5.072682         0.146569        -1.051118
 H         3.191600        -1.657381         0.129405
 H         1.735533        -0.110549         2.102201
 H         0.886842         1.150894         1.394813
