19
Iteration:  4705charge 0 multiplicity 1
 C         0.005781        -0.733124        -0.102646
 C         1.326556        -0.051819        -0.254138
 C         1.714320         1.282672        -0.983008
 C         3.139307         0.767653        -0.324528
 C         4.262272         0.616733        -1.288087
 O         3.463268        -0.732856        -1.784742
 C         2.680731        -0.675716        -0.519200
 O         3.080410         1.064669         1.009872
 C         1.773547         0.465203         1.186535
 H        -0.722806        -0.140731         0.459299
 H        -0.572324        -0.930075        -1.014849
 H         0.108136        -1.607532         0.522877
 H         1.774711         1.176330        -2.189981
 H         1.373547         2.283783        -0.620165
 H         4.212755         1.412581        -2.086435
 H         5.359124         0.393654        -1.014102
 H         3.055352        -1.553061         0.136656
 H         1.492955        -0.259516         1.903747
 H         1.149029         1.269615         1.549418
