19
Iteration:  1761
 C        -0.071924        -0.808181        -0.210160
 C         1.233208        -0.045972        -0.244209
 C         1.776114         1.249399        -0.892377
 C         3.141214         0.793713        -0.430051
 C         4.261506         0.551773        -1.322683
 O         3.410042        -0.635740        -1.830382
 C         2.698886        -0.607229        -0.455800
 O         3.114690         1.087005         1.018025
 C         1.832306         0.407308         1.290103
 H        -0.856833        -0.069689        -0.537323
 H        -0.158466        -1.677587        -0.767283
 H        -0.358990        -0.929675         0.815525
 H         1.924665         1.196864        -1.992506
 H         1.347077         2.298779        -0.619437
 H         4.769332         1.318994        -2.099856
 H         5.077950         0.207394        -0.742284
 H         3.209106        -1.296671         0.214513
 H         1.829759        -0.482256         2.008065
 H         1.119443         1.141316         1.725037
