19
Iteration:  1737charge 0 multiplicity 1
 C         0.028732        -0.771013        -0.228912
 C         1.282978         0.017215        -0.112494
 C         1.735425         1.278774        -0.931180
 C         3.165655         0.796214        -0.353140
 C         4.231113         0.443511        -1.365032
 O         3.412359        -0.623830        -1.820998
 C         2.664110        -0.699039        -0.535460
 O         3.041911         1.231505         1.070766
 C         1.860032         0.365020         1.289646
 H        -0.556525        -0.111966        -0.929708
 H         0.204216        -1.611884        -0.854740
 H        -0.609495        -0.992090         0.539459
 H         1.605846         1.083738        -2.043044
 H         1.221930         2.305873        -0.637983
 H         4.616615         1.265695        -2.045223
 H         5.133760        -0.092023        -0.973614
 H         3.062425        -1.599231        -0.084360
 H         2.064564        -0.588979         1.829326
 H         1.125500         0.877874         1.877370
