19
Iteration:  4417
 C        -0.013910        -0.687164        -0.149013
 C         1.258274        -0.028978        -0.085304
 C         1.776858         1.298552        -0.964007
 C         3.139649         0.866023        -0.378600
 C         4.282619         0.510405        -1.400823
 O         3.523353        -0.683704        -1.849005
 C         2.779952        -0.722488        -0.586836
 O         2.892712         1.162162         1.056734
 C         1.769181         0.346882         1.279028
 H        -0.813007         0.077326        -0.201721
 H         0.076114        -1.495418        -0.894399
 H        -0.162839        -1.262924         0.806528
 H         1.802412         1.044492        -2.090933
 H         1.243450         2.308364        -0.670694
 H         4.526497         1.213807        -2.192932
 H         5.177492         0.187875        -0.825187
 H         2.951967        -1.615138         0.165857
 H         2.199231        -0.551558         1.769185
 H         1.181077         0.863494         2.062749
