19
Iteration:  3184
 C        -0.120719        -0.690260        -0.151993
 C         1.239103        -0.026221        -0.160893
 C         1.660418         1.179422        -0.935980
 C         3.115093         0.813511        -0.409926
 C         4.281538         0.553662        -1.284301
 O         3.512004        -0.665711        -1.736101
 C         2.784712        -0.652464        -0.603668
 O         3.106838         1.115456         0.933040
 C         1.812753         0.381237         1.254628
 H        -0.908001         0.101334        -0.101352
 H        -0.054561        -1.336028        -1.013995
 H        -0.178109        -1.322853         0.734007
 H         1.644941         1.086416        -2.074455
 H         1.173155         2.087744        -0.439519
 H         4.586138         1.204621        -2.155916
 H         5.071238         0.251507        -0.710638
 H         3.091026        -1.282437         0.246823
 H         1.939207        -0.473782         1.940197
 H         1.216860         1.199656         1.752933
