19
Iteration:   961charge 0 multiplicity 1
 C        -0.002981        -0.766465        -0.247799
 C         1.304316         0.025287        -0.192179
 C         1.608844         1.356596        -0.805857
 C         3.212992         0.804866        -0.298676
 C         4.287065         0.501403        -1.389024
 O         3.356905        -0.533528        -1.925086
 C         2.662937        -0.612109        -0.580004
 O         3.201241         0.981877         1.117412
 C         1.761032         0.299931         1.284186
 H        -0.387961        -1.090459         0.711925
 H        -0.826191        -0.429445        -0.826665
 H         0.434266        -1.712059        -0.680422
 H         1.501310         1.434099        -1.923505
 H         1.140419         2.272393        -0.289299
 H         4.342789         1.382622        -1.982542
 H         5.293321         0.192323        -1.109032
 H         2.982193        -1.555977        -0.087973
 H         2.146444        -0.580558         1.835120
 H         1.188226         1.022168         1.855648
