19
Iteration:  3831
 C        -0.047864        -0.714949        -0.260110
 C         1.344300        -0.086236        -0.052738
 C         1.773115         1.123521        -0.992432
 C         3.137550         0.832500        -0.341445
 C         4.181060         0.537648        -1.371059
 O         3.420593        -0.562403        -1.834831
 C         2.819754        -0.730221        -0.481902
 O         3.086412         1.059221         1.028891
 C         1.729157         0.525989         1.329620
 H        -0.899080        -0.098875         0.097470
 H        -0.184012        -0.857800        -1.330824
 H        -0.120874        -1.660183         0.240923
 H         1.587127         0.780725        -2.031143
 H         1.307608         2.092206        -0.854997
 H         4.429671         1.438450        -2.111963
 H         5.199926         0.221625        -1.094342
 H         3.254943        -1.588269         0.143420
 H         1.857393        -0.082716         2.267908
 H         0.968126         1.365506         1.442807
