19
Iteration:  3397charge 0 multiplicity 1
 C         0.050689        -0.736204        -0.321139
 C         1.314243        -0.053758        -0.073719
 C         1.760779         1.249979        -0.964874
 C         3.170686         0.843596        -0.394479
 C         4.135386         0.451885        -1.454159
 O         3.436510        -0.747106        -1.786418
 C         2.703535        -0.590289        -0.422624
 O         3.074009         1.132096         1.103927
 C         1.770708         0.486685         1.269038
 H        -0.781672        -0.163983         0.162850
 H        -0.097709        -0.905616        -1.441922
 H         0.029473        -1.816058         0.093962
 H         1.481067         1.092590        -1.960704
 H         1.702979         2.315640        -0.526792
 H         4.179292         1.108325        -2.212463
 H         5.078940         0.203483        -0.956078
 H         3.253671        -1.195944         0.285026
 H         1.796878        -0.386868         1.967203
 H         1.072058         1.184212         1.685192
