19
Iteration:  3560
 C         0.012554        -0.759521        -0.369375
 C         1.365665        -0.070744        -0.178777
 C         1.679306         1.222020        -0.879470
 C         3.155937         0.852676        -0.357739
 C         4.163299         0.478488        -1.372601
 O         3.378087        -0.665837        -1.775728
 C         2.731990        -0.659153        -0.397310
 O         3.163218         1.163255         0.977158
 C         1.764225         0.464349         1.334182
 H        -0.754679        -0.092474        -0.147718
 H         0.014667        -1.178040        -1.373398
 H        -0.129502        -1.647091         0.199653
 H         1.656120         1.260913        -2.010571
 H         1.207966         2.188923        -0.511062
 H         4.405646         1.140511        -2.246925
 H         5.051347         0.119221        -0.741946
 H         3.031089        -1.504300         0.195855
 H         1.970007        -0.386385         2.047000
 H         1.167484         1.224836         1.849354
