19
Iteration:  3680charge 0 multiplicity 1
 C        -0.001338        -0.738162        -0.226909
 C         1.326259        -0.079264        -0.214860
 C         1.769819         1.311536        -0.974559
 C         3.104685         0.823865        -0.285682
 C         4.205123         0.522273        -1.435320
 O         3.420656        -0.661468        -1.675495
 C         2.744159        -0.654017        -0.504831
 O         3.090390         1.136612         1.046920
 C         1.769951         0.373045         1.234619
 H        -0.825107         0.083082        -0.282672
 H        -0.017969        -1.336379        -1.189475
 H        -0.123031        -1.450573         0.614247
 H         1.655227         1.194715        -2.122357
 H         1.294632         2.191559        -0.557030
 H         4.078976         1.280151        -2.211911
 H         5.211162         0.219407        -1.223718
 H         3.234303        -1.316513         0.229282
 H         2.004291        -0.594509         1.696876
 H         1.043601         0.837450         1.830397
