19
Iteration:   539charge 0 multiplicity 1
 C         0.014175        -0.790207        -0.102318
 C         1.302813        -0.005602        -0.147706
 C         1.815437         1.409936        -0.595369
 C         3.193804         0.735507        -0.236736
 C         4.113147         0.910196        -1.525330
 O         3.361103        -0.381990        -2.010331
 C         2.618300        -0.575675        -0.821205
 O         3.259784         0.690765         1.141797
 C         1.768861         0.063234         1.323969
 H         0.163763        -1.696750        -0.811481
 H        -0.611499        -1.069222         0.803435
 H        -0.705577        -0.154931        -0.630921
 H         1.614668         1.413818        -1.630014
 H         1.604659         2.337565        -0.237282
 H         3.840469         1.790442        -2.179789
 H         5.189635         0.648044        -1.550254
 H         2.761192        -1.559655        -0.330665
 H         1.960442        -0.892663         1.622180
 H         1.092534         0.691005         1.928645
