19
Iteration:  4485
 C         0.064138        -0.814004        -0.263613
 C         1.349293        -0.007239        -0.058742
 C         1.832226         1.217363        -0.906390
 C         3.194001         0.745392        -0.324081
 C         4.167444         0.509909        -1.532901
 O         3.434676        -0.637586        -1.824273
 C         2.723844        -0.637791        -0.445412
 O         3.002946         1.047863         1.080732
 C         1.661415         0.592046         1.314074
 H        -0.823935        -0.321846         0.249551
 H        -0.067428        -0.822082        -1.378043
 H         0.139776        -1.843182         0.055783
 H         1.916126         1.060807        -1.937616
 H         1.595252         2.299812        -0.620162
 H         4.065763         1.178947        -2.309431
 H         5.270170         0.374271        -1.332240
 H         3.141438        -1.570276         0.047442
 H         1.700247        -0.177363         2.092032
 H         0.905920         1.406040         1.471491
