19
Iteration:   145charge 0 multiplicity 1
 C        -0.029666        -0.685338        -0.253833
 C         1.319880        -0.062162        -0.075902
 C         1.594467         1.440480        -0.357954
 C         3.144732         0.768246        -0.233875
 C         4.076695         0.811973        -1.429864
 O         3.137940        -0.042495        -2.208749
 C         2.637382        -0.534984        -0.916489
 O         3.393752         0.550788         1.198909
 C         2.121513        -0.214248         1.292469
 H        -0.374547        -0.430262        -1.289466
 H         0.031269        -1.765277        -0.300087
 H        -0.727440        -0.356992         0.402145
 H         1.352947         1.862501        -1.366080
 H         1.242794         2.158814         0.415792
 H         4.274739         1.791662        -1.916725
 H         4.967483         0.332796        -1.205341
 H         3.199969        -1.354793        -0.535825
 H         2.373718        -1.273253         1.283238
 H         1.526803         0.037755         2.199098
