19
Iteration:  4149
 C        -0.018445        -0.734292        -0.230373
 C         1.399472        -0.051062        -0.095426
 C         1.810291         1.113739        -0.953053
 C         3.220209         0.729897        -0.287473
 C         4.357607         0.499028        -1.474573
 O         3.297444        -0.522514        -1.890957
 C         2.794008        -0.720322        -0.470046
 O         2.968229         1.165170         1.121751
 C         1.668654         0.466738         1.282036
 H        -0.759389        -0.241189         0.468753
 H        -0.507008        -0.699255        -1.252132
 H         0.124882        -1.722903         0.089876
 H         1.938721         1.122827        -2.046284
 H         1.482406         2.131437        -0.602653
 H         4.435505         1.273770        -2.309039
 H         5.233804         0.066242        -1.128423
 H         3.162504        -1.618885         0.049666
 H         1.742472        -0.009798         2.184790
 H         0.865729         1.192300         1.432790
