19
Iteration:  3186charge 0 multiplicity 1
 C        -0.123152        -0.694160        -0.167239
 C         1.240387        -0.024314        -0.146503
 C         1.662622         1.184112        -0.946746
 C         3.133499         0.815310        -0.396582
 C         4.272534         0.553591        -1.277066
 O         3.509769        -0.661727        -1.745669
 C         2.780695        -0.652679        -0.603096
 O         3.091141         1.123303         0.929932
 C         1.834251         0.382732         1.258277
 H        -0.974208         0.062269        -0.073370
 H        -0.112274        -1.328179        -1.068570
 H        -0.121713        -1.301379         0.782754
 H         1.578231         1.037670        -2.079317
 H         1.222839         2.036297        -0.456829
 H         4.551161         1.151525        -2.142965
 H         5.098037         0.183851        -0.641634
 H         3.092523        -1.285205         0.233645
 H         1.929598        -0.462287         1.916846
 H         1.269433         1.165841         1.751736
