19
Iteration:   691
 C        -0.053991        -0.711875        -0.245878
 C         1.309347        -0.111690        -0.127239
 C         1.709458         1.255220        -0.815724
 C         3.179675         0.735319        -0.246626
 C         4.192528         0.638197        -1.322367
 O         3.213833        -0.250932        -2.080862
 C         2.736154        -0.658085        -0.680695
 O         3.173717         0.947892         1.125213
 C         1.975922         0.135017         1.371606
 H        -0.621351        -0.494613         0.672260
 H        -0.646517        -0.227980        -1.050485
 H        -0.141281        -1.691106        -0.358098
 H         1.623527         1.212797        -1.895401
 H         1.330854         2.180984        -0.406648
 H         4.586118         1.473203        -1.794775
 H         5.007181         0.019507        -0.959530
 H         3.238187        -1.585844        -0.333191
 H         2.280643        -0.736718         1.992295
 H         1.304763         0.739995         2.050140
