19
Iteration:  1152charge 0 multiplicity 1
 C        -0.003820        -0.728479        -0.253871
 C         1.317469        -0.090934        -0.156901
 C         1.693102         1.323910        -0.870334
 C         3.147824         0.789822        -0.364995
 C         4.288046         0.539097        -1.350273
 O         3.417475        -0.603170        -1.808959
 C         2.646951        -0.608216        -0.627316
 O         3.072237         1.080739         1.015775
 C         1.880300         0.297237         1.335857
 H        -0.074250        -1.658701        -0.849726
 H        -0.475623        -1.093642         0.737609
 H        -0.819461        -0.023478        -0.421565
 H         1.236123         1.430345        -1.871855
 H         1.442684         2.245360        -0.247081
 H         4.270298         1.212843        -2.139135
 H         5.398394         0.460862        -1.043107
 H         3.043670        -1.432242        -0.027473
 H         2.087185        -0.597103         1.934269
 H         1.175444         0.964643         1.898166
