19
Iteration:  2944
 C         0.101896        -0.816774        -0.236667
 C         1.390916        -0.023745        -0.172396
 C         1.755632         1.251157        -0.955173
 C         3.151172         0.809588        -0.363274
 C         4.269424         0.494110        -1.411833
 O         3.319970        -0.600286        -1.863627
 C         2.654364        -0.684154        -0.502818
 O         3.075454         1.137984         1.163079
 C         1.729224         0.492450         1.297092
 H        -0.900053        -0.278661        -0.177704
 H         0.040812        -1.426639        -1.167233
 H         0.238186        -1.696942         0.417859
 H         1.713588         1.214681        -1.989228
 H         1.308115         2.053789        -0.459467
 H         4.472843         1.238236        -2.255993
 H         5.227715         0.016496        -1.012546
 H         2.989258        -1.539917         0.067246
 H         1.743900        -0.226132         2.143216
 H         0.960616         1.197177         1.615513
