19
Iteration:   805
 C         0.005876        -0.728751        -0.308137
 C         1.375331        -0.102451        -0.055370
 C         1.765682         1.264170        -0.701969
 C         3.137640         0.768959        -0.294023
 C         4.248339         0.501639        -1.476524
 O         3.295900        -0.311110        -1.958836
 C         2.666958        -0.650074        -0.658141
 O         3.098484         1.050761         1.106158
 C         1.852317         0.184049         1.354111
 H        -0.097768        -1.474158        -1.130525
 H        -0.376296        -1.141827         0.607353
 H        -0.743246         0.172091        -0.665682
 H         1.547716         1.219304        -1.781844
 H         1.435627         2.137826        -0.133892
 H         4.307695         1.363121        -2.302732
 H         5.190955         0.128526        -1.231390
 H         3.122210        -1.630748        -0.246094
 H         2.294496        -0.704175         1.923528
 H         1.135893         0.673615         2.114796
