19
Iteration:  2195charge 0 multiplicity 1
 C         0.012869        -0.761961        -0.297139
 C         1.404456        -0.051574        -0.145093
 C         1.736184         1.211464        -0.945646
 C         3.104830         0.801666        -0.258065
 C         4.192106         0.435705        -1.331795
 O         3.326935        -0.635327        -1.900034
 C         2.727041        -0.705495        -0.515446
 O         3.064512         1.269981         1.036552
 C         1.863380         0.393745         1.343303
 H        -0.579103         0.143705        -0.442252
 H         0.003625        -1.243002        -1.245236
 H        -0.251419        -1.343255         0.524311
 H         1.845531         1.137418        -2.078049
 H         1.250050         2.244936        -0.527830
 H         4.325951         1.251266        -2.069790
 H         4.965822         0.150933        -0.654581
 H         3.146389        -1.435279         0.151922
 H         2.231289        -0.471581         1.944411
 H         1.060173         0.950218         1.839189
