19
Iteration:  4126charge 0 multiplicity 1
 C        -0.036340        -0.703616        -0.183949
 C         1.392542        -0.096988        -0.202000
 C         1.810302         1.204244        -0.930370
 C         3.125417         0.811002        -0.282573
 C         4.227227         0.550861        -1.317538
 O         3.419957        -0.664217        -1.828763
 C         2.710446        -0.677129        -0.549497
 O         3.068353         1.166106         1.013863
 C         1.731179         0.394053         1.248113
 H        -0.809975        -0.098495         0.365620
 H        -0.411239        -0.713839        -1.254726
 H        -0.063289        -1.731026         0.153114
 H         1.735883         1.277937        -2.087557
 H         1.394849         2.086535        -0.438227
 H         4.180230         1.116198        -2.241000
 H         5.204516         0.330418        -0.883761
 H         3.119443        -1.420572         0.112019
 H         1.977427        -0.342543         1.964508
 H         1.087318         1.094979         1.790446
