19
Iteration:  3427charge 0 multiplicity 1
 C        -0.018876        -0.752996        -0.330318
 C         1.335890        -0.131410        -0.090004
 C         1.759490         1.127207        -0.969728
 C         3.279112         0.781365        -0.261043
 C         4.293387         0.433946        -1.380498
 O         3.264552        -0.601030        -1.783664
 C         2.702496        -0.675191        -0.434081
 O         2.983940         1.303689         1.037427
 C         1.870324         0.494658         1.218911
 H        -0.754685        -0.283209         0.259468
 H        -0.187879        -0.451934        -1.321682
 H         0.061582        -1.805210        -0.168046
 H         1.668984         0.924807        -2.023516
 H         1.396444         2.131322        -0.565861
 H         4.382414         1.293376        -2.170089
 H         5.261270        -0.084064        -1.115773
 H         2.994643        -1.572102         0.106406
 H         2.139574        -0.379699         1.923720
 H         1.148826         1.080413         1.810836
