19
Iteration:  2132
 C         0.062233        -0.710744        -0.245197
 C         1.331899        -0.055645        -0.183846
 C         1.746606         1.182871        -0.903565
 C         3.157026         0.743381        -0.308187
 C         4.220595         0.550042        -1.379562
 O         3.404853        -0.602507        -1.812086
 C         2.707806        -0.703049        -0.502692
 O         3.074751         1.093672         1.066991
 C         1.759257         0.520567         1.229836
 H        -0.525373        -0.460565         0.744067
 H        -0.562602        -0.721534        -1.134938
 H         0.020867        -1.790890        -0.029421
 H         1.773471         1.102530        -1.987151
 H         1.153053         1.954634        -0.609634
 H         4.381737         1.130724        -2.289603
 H         5.317321         0.335705        -0.983745
 H         3.077829        -1.564722         0.053050
 H         1.563811        -0.160443         2.140329
 H         1.059504         1.408209         1.367927
