19
Iteration:  4439charge 0 multiplicity 1
 C        -0.048273        -0.763723        -0.256180
 C         1.304686        -0.114999        -0.143283
 C         1.752993         1.186632        -0.979013
 C         3.124573         0.859068        -0.376511
 C         4.306331         0.452820        -1.247922
 O         3.382860        -0.573334        -1.814758
 C         2.659228        -0.642051        -0.524122
 O         3.049208         1.243015         0.994372
 C         1.868670         0.354565         1.283961
 H        -0.770780         0.080719        -0.252655
 H        -0.047789        -1.453822        -1.123359
 H        -0.179449        -1.362592         0.670715
 H         1.422414         0.981719        -2.040870
 H         1.273512         2.150338        -0.483924
 H         4.619482         1.204239        -1.969809
 H         5.189593        -0.084906        -0.811738
 H         3.304814        -1.273469         0.221580
 H         2.275130        -0.492696         1.825928
 H         1.132367         0.975434         1.832611
