19
Iteration:  1136charge 0 multiplicity 1
 C        -0.024905        -0.755357        -0.200743
 C         1.327984        -0.046949        -0.136896
 C         1.783590         1.263966        -0.826155
 C         3.114943         0.793327        -0.353179
 C         4.171141         0.611704        -1.378839
 O         3.389991        -0.545125        -1.907555
 C         2.724737        -0.674838        -0.504960
 O         3.141736         1.007380         1.027243
 C         1.766577         0.371033         1.274140
 H         0.153718        -1.613425        -0.829034
 H        -0.503815        -1.038916         0.708966
 H        -0.756484        -0.108986        -0.716384
 H         1.797933         1.143043        -1.920206
 H         1.442209         2.259084        -0.498286
 H         4.544411         1.440942        -2.114512
 H         5.012332         0.125414        -0.898611
 H         3.223400        -1.561060        -0.025392
 H         1.913464        -0.448593         2.033819
 H         1.051153         1.072476         1.691855
