19
Iteration:  4623
 C        -0.019738        -0.804056        -0.373138
 C         1.287236        -0.047752        -0.133463
 C         1.765378         1.232344        -0.898960
 C         3.189197         0.775810        -0.338967
 C         4.234797         0.571258        -1.475714
 O         3.402761        -0.732825        -1.764187
 C         2.679360        -0.613479        -0.495318
 O         3.123312         1.105942         1.069220
 C         1.777943         0.546141         1.396944
 H        -0.887625        -0.130250        -0.228217
 H        -0.133332        -1.424517        -1.280929
 H        -0.109204        -1.575531         0.489599
 H         1.687623         1.239195        -1.934418
 H         1.338799         2.177534        -0.508374
 H         4.242526         1.396273        -2.240009
 H         5.250214         0.233472        -1.261442
 H         3.101632        -1.354821         0.161147
 H         1.797479        -0.410788         1.993769
 H         1.082907         1.373930         1.586737
