19
Iteration:  2177charge 0 multiplicity 1
 C         0.036510        -0.771423        -0.304059
 C         1.306628        -0.006127        -0.169120
 C         1.748647         1.238194        -0.893007
 C         3.188356         0.828400        -0.383410
 C         4.253763         0.498369        -1.408452
 O         3.342039        -0.638938        -1.760880
 C         2.664339        -0.618855        -0.452132
 O         3.048049         1.174171         1.055480
 C         1.816943         0.390921         1.281998
 H        -1.004538        -0.269930        -0.071034
 H         0.131262        -1.255714        -1.310430
 H         0.045105        -1.660389         0.436245
 H         1.614032         1.076946        -1.963554
 H         1.502821         2.197217        -0.609565
 H         4.489605         1.146576        -2.245921
 H         5.228827        -0.158884        -1.091088
 H         2.976904        -1.559082         0.023673
 H         2.190321        -0.435801         1.989790
 H         1.151532         1.071221         1.899351
