19
Iteration:  1982
 C         0.018171        -0.752386        -0.272323
 C         1.290805        -0.015709        -0.152663
 C         1.724843         1.190897        -0.893319
 C         3.189769         0.826164        -0.292505
 C         4.319262         0.467983        -1.463917
 O         3.385537        -0.659229        -1.819515
 C         2.700071        -0.574252        -0.529449
 O         3.012272         1.166489         1.044884
 C         1.800904         0.383133         1.337503
 H        -0.843568        -0.106539        -0.353664
 H        -0.080003        -1.344026        -1.185256
 H        -0.170172        -1.447810         0.565172
 H         1.642488         1.187356        -2.033692
 H         1.346460         2.230494        -0.392383
 H         4.564711         1.303521        -2.231739
 H         5.129952         0.059421        -0.878791
 H         3.045368        -1.442906         0.120739
 H         2.082282        -0.510543         1.893843
 H         1.144516         1.068173         1.919212
