19
Iteration:  1659
 C        -0.025313        -0.742671        -0.157274
 C         1.276335        -0.037421        -0.151990
 C         1.751881         1.303487        -0.914087
 C         3.114503         0.773856        -0.348206
 C         4.260117         0.569012        -1.342503
 O         3.484389        -0.616483        -1.893960
 C         2.683108        -0.701321        -0.553180
 O         3.067281         1.035910         1.033538
 C         1.768918         0.453635         1.321335
 H        -0.142156        -1.058929        -1.180496
 H         0.023164        -1.692319         0.431806
 H        -0.775413        -0.145488         0.232360
 H         1.674058         1.161315        -2.049948
 H         1.488251         2.394970        -0.592665
 H         4.329541         1.137499        -2.258503
 H         5.271201         0.321720        -0.873383
 H         3.133597        -1.577998        -0.072744
 H         1.958906        -0.401457         2.004589
 H         1.011928         1.146848         1.705116
