19
Iteration:    82
 C         0.003715        -0.654099        -0.195018
 C         1.396570        -0.188809        -0.124207
 C         1.808827         1.230456        -0.431203
 C         3.221148         0.612668        -0.215492
 C         4.049948         0.979368        -1.422710
 O         3.082548         0.178559        -2.188484
 C         2.577013        -0.583634        -0.976294
 O         3.299100         0.512396         1.195447
 C         2.022694        -0.154979         1.362993
 H        -0.031320        -1.792288        -0.357556
 H        -0.463635        -0.384228         0.781053
 H        -0.616612        -0.124378        -0.962441
 H         1.639759         1.441391        -1.520116
 H         1.527734         2.031045         0.332877
 H         3.947108         2.087781        -1.737022
 H         5.055647         0.491013        -1.473894
 H         2.979999        -1.572718        -1.149728
 H         2.231737        -1.123884         1.759103
 H         1.418096         0.421959         2.063311
