19
Iteration:  4648charge 0 multiplicity 1
 C         0.059134        -0.711506        -0.424058
 C         1.381186        -0.099889        -0.063390
 C         1.727965         1.144748        -0.883160
 C         3.098743         0.840301        -0.365214
 C         4.160659         0.449559        -1.348127
 O         3.298455        -0.603118        -1.756086
 C         2.697920        -0.730263        -0.472028
 O         3.137539         1.262493         0.986444
 C         1.844667         0.439702         1.335269
 H        -0.792759        -0.083268        -0.073783
 H         0.028756        -0.969078        -1.498931
 H        -0.044507        -1.665808         0.014816
 H         1.602179         1.071733        -1.982852
 H         1.392716         2.204716        -0.494378
 H         4.533561         1.035183        -2.154727
 H         5.045495        -0.020248        -0.712419
 H         3.240980        -1.448333         0.207703
 H         1.943381        -0.440050         1.875368
 H         1.182558         1.199670         1.615718
