19
Iteration:   643
 C         0.032927        -0.703136        -0.271532
 C         1.366867        -0.108045        -0.214014
 C         1.759050         1.437686        -0.637766
 C         3.131625         0.867244        -0.281116
 C         3.992698         0.734015        -1.523858
 O         3.330810        -0.448675        -1.977978
 C         2.704710        -0.602350        -0.653570
 O         3.267771         0.701504         1.184565
 C         1.858449         0.150108         1.288441
 H        -0.871557        -0.146032        -0.265149
 H        -0.082665        -1.468243        -1.000116
 H        -0.131063        -1.208517         0.772411
 H         1.727223         1.802437        -1.710271
 H         1.273747         2.230342         0.075079
 H         3.911058         1.671015        -2.198717
 H         5.142767         0.662826        -1.293636
 H         3.053306        -1.419166        -0.026497
 H         1.828785        -0.846448         1.854789
 H         1.176926         0.782248         1.832332
