19
Iteration:   730charge 0 multiplicity 1
 C        -0.139247        -0.758584        -0.182404
 C         1.362125        -0.068931        -0.107495
 C         1.778321         1.410663        -0.699964
 C         3.101296         0.799939        -0.360498
 C         4.163813         0.637192        -1.403582
 O         3.412543        -0.434529        -2.070077
 C         2.718715        -0.573506        -0.695337
 O         3.089479         0.922673         1.109148
 C         1.897530         0.111964         1.387228
 H        -0.234586        -1.340312         0.761743
 H        -0.903927         0.013350        -0.202384
 H        -0.126908        -1.550384        -1.097392
 H         1.650380         1.429314        -1.804468
 H         1.607316         2.412027        -0.199676
 H         4.551970         1.487363        -2.064694
 H         5.058212         0.100518        -0.990192
 H         3.169280        -1.451059        -0.218891
 H         2.134496        -0.858566         1.751767
 H         1.223331         0.666188         2.006538
