19
Iteration:  2426charge 0 multiplicity 1
 C        -0.001376        -0.710645        -0.182954
 C         1.326753        -0.070997        -0.072011
 C         1.717076         1.200009        -0.985989
 C         3.137995         0.773233        -0.356462
 C         4.277442         0.456331        -1.322727
 O         3.382136        -0.555078        -1.835406
 C         2.695548        -0.657833        -0.514296
 O         3.012478         1.204293         0.987934
 C         1.848029         0.344516         1.269049
 H        -0.739221         0.049419        -0.424018
 H        -0.002926        -1.209626        -1.153662
 H        -0.135058        -1.418079         0.605407
 H         1.644251         1.091735        -2.069191
 H         1.503311         2.138740        -0.455409
 H         4.738301         1.306897        -1.991651
 H         5.118681        -0.020726        -0.787255
 H         3.111712        -1.487777         0.104819
 H         2.093924        -0.448180         1.904065
 H         1.084542         1.019984         1.639665
