19
Iteration:  2572charge 0 multiplicity 1
 C        -0.089711        -0.768959        -0.148072
 C         1.239255        -0.023216        -0.170792
 C         1.736320         1.223469        -0.979280
 C         3.142490         0.764445        -0.379508
 C         4.295755         0.610570        -1.353247
 O         3.495442        -0.614579        -1.816969
 C         2.770845        -0.680701        -0.468695
 O         3.096463         1.014211         1.054291
 C         1.749279         0.495804         1.208451
 H        -0.831817         0.092326        -0.129541
 H        -0.157528        -1.468201        -0.977105
 H        -0.334705        -1.259043         0.793938
 H         1.682557         1.233284        -2.148351
 H         1.405893         2.223915        -0.438514
 H         4.184830         1.255169        -2.210640
 H         5.268380         0.065794        -1.153603
 H         3.209172        -1.404043         0.241295
 H         1.785630        -0.257153         1.908423
 H         0.947046         1.084556         1.639389
