19
Iteration:  4555
 C        -0.090594        -0.699232        -0.181825
 C         1.303240        -0.072228        -0.058289
 C         1.693527         1.132023        -0.945799
 C         3.134109         0.794257        -0.359580
 C         4.316499         0.465444        -1.200291
 O         3.485114        -0.574728        -1.963903
 C         2.710584        -0.697257        -0.560075
 O         3.021116         1.226980         0.970175
 C         1.828550         0.420743         1.320581
 H        -0.843811         0.061882         0.064481
 H        -0.237432        -0.983892        -1.241568
 H        -0.439414        -1.679789         0.285070
 H         1.572671         0.838341        -2.032383
 H         1.282433         2.018106        -0.697437
 H         4.689041         1.298506        -1.890316
 H         5.102781        -0.040567        -0.746273
 H         3.156244        -1.464364         0.015294
 H         2.314081        -0.408100         1.940250
 H         1.306959         1.225191         1.851003
