19
Iteration:   570
 C        -0.026596        -0.738719        -0.158637
 C         1.337131        -0.109786        -0.216666
 C         1.650173         1.309262        -0.681742
 C         3.158059         0.752889        -0.294661
 C         4.231774         0.711435        -1.389407
 O         3.226109        -0.180821        -2.106639
 C         2.721225        -0.615692        -0.684356
 O         3.231043         0.792885         1.119335
 C         1.904035         0.094925         1.375498
 H        -0.389871        -1.249017        -1.111963
 H        -0.214510        -1.463065         0.672676
 H        -0.668825         0.092372        -0.110169
 H         1.423042         1.551545        -1.712599
 H         1.337501         2.072462         0.013647
 H         4.579223         1.494227        -1.961803
 H         5.046716         0.081540        -1.067669
 H         3.264221        -1.511485        -0.260593
 H         2.123791        -0.935728         1.698155
 H         1.229380         0.648676         2.057364
