19
Iteration:  4745charge 0 multiplicity 1
 C        -0.119497        -0.742925        -0.176410
 C         1.272603        -0.067470        -0.079816
 C         1.767300         1.165281        -0.974837
 C         3.181909         0.747863        -0.359210
 C         4.351704         0.568307        -1.357333
 O         3.425195        -0.642253        -1.879482
 C         2.764572        -0.655005        -0.526385
 O         3.057860         1.135494         1.052792
 C         1.751833         0.474875         1.277096
 H        -0.842391         0.139017        -0.029711
 H        -0.223719        -1.247535        -1.168721
 H        -0.385444        -1.501773         0.549021
 H         1.702054         0.945483        -2.017652
 H         1.260691         2.143819        -0.813543
 H         4.422486         1.372937        -2.009436
 H         5.269649         0.079799        -0.979971
 H         3.192819        -1.361333         0.190527
 H         2.003191        -0.209831         2.172364
 H         0.984238         1.275008         1.525431
