19
Iteration:  4846charge 0 multiplicity 1
 C        -0.018153        -0.718495        -0.133187
 C         1.331434        -0.102693        -0.290810
 C         1.824524         1.187093        -0.948835
 C         3.160746         0.742822        -0.293924
 C         4.224487         0.553459        -1.366806
 O         3.418228        -0.583867        -1.830969
 C         2.737045        -0.724694        -0.470812
 O         3.086109         1.096107         1.047047
 C         1.678452         0.563325         1.218671
 H        -0.794612        -0.265797         0.579695
 H        -0.661182        -0.847849        -1.006812
 H         0.189449        -1.655724         0.371999
 H         1.907673         0.933486        -2.100107
 H         1.297151         2.119158        -0.767103
 H         4.405083         1.277883        -2.086085
 H         5.213836         0.208712        -0.947490
 H         3.133485        -1.633513        -0.036178
 H         1.699802        -0.184584         2.091881
 H         1.035054         1.264394         1.697865
