19
Iteration:    35
 C        -0.095957        -0.716208        -0.260377
 C         1.314055        -0.017407        -0.083514
 C         1.700615         1.412161        -0.213391
 C         3.174226         0.862653        -0.199802
 C         4.070118         0.920849        -1.531267
 O         3.178824        -0.018486        -2.194473
 C         2.568231        -0.422259        -0.990427
 O         3.331253         0.444746         1.190150
 C         2.168606        -0.369174         1.291212
 H        -0.252619        -1.330910         0.683749
 H        -1.003626        -0.142133        -0.538198
 H         0.063826        -1.432065        -0.984429
 H         1.541503         1.721370        -1.263693
 H         1.444336         2.188320         0.539722
 H         4.151731         1.902206        -2.075144
 H         5.003525         0.460206        -1.296735
 H         2.838647        -1.434062        -0.881655
 H         2.474252        -1.377409         1.463231
 H         1.533505         0.002091         2.096711
