19
Iteration:  4969charge 0 multiplicity 1
 C         0.009236        -0.776976        -0.283262
 C         1.344816        -0.078805        -0.170134
 C         1.825943         1.141778        -0.939138
 C         3.196014         0.802481        -0.319406
 C         4.263800         0.552796        -1.339683
 O         3.234353        -0.609526        -1.820411
 C         2.783737        -0.662195        -0.475461
 O         3.100166         1.124325         1.013738
 C         1.716647         0.508878         1.304597
 H        -0.811063        -0.126656        -0.067196
 H        -0.206895        -1.144586        -1.281699
 H        -0.026815        -1.655785         0.428878
 H         1.785473         1.081906        -1.999595
 H         1.321388         2.037786        -0.446620
 H         4.471058         1.382026        -2.034512
 H         5.189358         0.138600        -1.038167
 H         3.091551        -1.492004         0.177950
 H         1.974290        -0.120052         2.143539
 H         0.930000         1.227549         1.522943
