19
Iteration:  1293
 C        -0.098507        -0.743064        -0.305158
 C         1.268117        -0.087447        -0.091537
 C         1.739457         1.184233        -0.910285
 C         3.172545         0.795794        -0.329950
 C         4.231527         0.496219        -1.410925
 O         3.399219        -0.536517        -1.862501
 C         2.746247        -0.592858        -0.515049
 O         3.049595         1.174428         1.031917
 C         1.870649         0.327296         1.369334
 H        -0.271411        -0.839986        -1.378271
 H        -0.172104        -1.717003         0.069163
 H        -0.915995        -0.241709         0.153221
 H         1.610319         1.315814        -2.027398
 H         1.551643         2.212762        -0.310721
 H         4.680466         1.095359        -2.120993
 H         5.166753         0.026578        -0.911590
 H         3.279521        -1.441102        -0.040591
 H         2.215353        -0.629385         1.865434
 H         1.263821         0.877601         2.142253
