19
Iteration:  1596
 C        -0.044818        -0.701878        -0.290647
 C         1.282663        -0.043261        -0.077674
 C         1.755637         1.199057        -0.856942
 C         3.165914         0.693352        -0.307757
 C         4.283780         0.544375        -1.380719
 O         3.345050        -0.538556        -1.863679
 C         2.763787        -0.671617        -0.571779
 O         3.076451         1.121532         1.019220
 C         1.804689         0.374810         1.325501
 H         0.092494        -1.690453        -0.830245
 H        -0.464493        -1.025720         0.660192
 H        -0.822556        -0.123855        -0.861579
 H         1.682927         1.026731        -1.951571
 H         1.410654         2.192284        -0.516250
 H         4.173946         1.448009        -2.148695
 H         5.297868         0.390841        -1.133182
 H         3.139848        -1.498937        -0.025552
 H         2.149531        -0.367390         2.118784
 H         1.209133         1.004666         1.949051
