19
Iteration:   255
 C        -0.048398        -0.644705        -0.264288
 C         1.369864        -0.129852        -0.138996
 C         1.665092         1.361763        -0.463009
 C         3.198023         0.795053        -0.257017
 C         4.109397         0.767575        -1.442678
 O         3.184576        -0.115370        -2.128192
 C         2.610406        -0.538791        -0.841376
 O         3.234376         0.711764         1.178854
 C         2.123742        -0.218081         1.316348
 H        -0.301308        -1.353797         0.621210
 H        -0.593146         0.290137        -0.085695
 H        -0.383444        -1.049497        -1.157801
 H         1.394866         1.770362        -1.451908
 H         1.372715         2.177413         0.271308
 H         4.237467         1.742436        -1.975508
 H         5.004179         0.329894        -1.298954
 H         2.924689        -1.530154        -0.587263
 H         2.542377        -1.253108         1.505609
 H         1.515104         0.041864         2.262508
