19
Iteration:  2841
 C        -0.081153        -0.740987        -0.143305
 C         1.325032        -0.050536        -0.132627
 C         1.687706         1.196897        -0.926618
 C         3.083869         0.823390        -0.301027
 C         4.257570         0.530083        -1.261151
 O         3.489287        -0.648210        -1.887353
 C         2.755219        -0.648291        -0.600636
 O         3.075139         1.159084         1.040304
 C         1.784405         0.375424         1.231202
 H        -0.958685        -0.122439         0.193625
 H        -0.146732        -0.848915        -1.242048
 H         0.046607        -1.696318         0.434340
 H         1.711426         1.120056        -2.078370
 H         1.292478         2.222384        -0.716195
 H         4.414702         1.134084        -2.273015
 H         5.237397         0.221267        -0.812451
 H         3.203621        -1.470611         0.009614
 H         1.919190        -0.405094         1.919380
 H         1.252007         1.260211         1.559072
