19
Iteration:  3141charge 0 multiplicity 1
 C        -0.047064        -0.687102        -0.191671
 C         1.308113        -0.095044        -0.122686
 C         1.817805         1.160356        -0.937617
 C         3.184021         0.742446        -0.282529
 C         4.230128         0.648873        -1.485266
 O         3.425781        -0.642764        -1.800520
 C         2.809021        -0.755185        -0.500012
 O         3.062047         1.134162         1.052409
 C         1.653065         0.513562         1.283949
 H        -0.997126        -0.010710        -0.322850
 H        -0.004749        -1.272628        -1.126867
 H        -0.272711        -1.254206         0.731294
 H         1.981980         0.789300        -2.000488
 H         1.571399         2.202514        -0.593388
 H         4.081145         1.348571        -2.382269
 H         5.249834         0.323475        -1.293673
 H         3.211352        -1.626113         0.047273
 H         1.868959        -0.347019         1.881510
 H         0.800453         1.071011         1.694448
