19
Iteration:  1805charge 0 multiplicity 1
 C        -0.103484        -0.709208        -0.202505
 C         1.349480        -0.132956        -0.114752
 C         1.903695         1.144408        -0.995358
 C         3.153963         0.748234        -0.297770
 C         4.221518         0.590565        -1.389965
 O         3.424962        -0.577640        -1.905162
 C         2.739646        -0.742843        -0.443004
 O         3.044250         1.119789         1.062958
 C         1.706622         0.519960         1.271199
 H        -0.854694        -0.020671         0.274336
 H        -0.314013        -0.870677        -1.219192
 H        -0.183896        -1.629769         0.336748
 H         1.725940         0.984072        -2.079112
 H         1.551007         2.218127        -0.620722
 H         4.465265         1.461416        -2.210941
 H         5.176636         0.179452        -1.132720
 H         3.155115        -1.501978         0.212966
 H         1.901243        -0.273222         2.061942
 H         0.968600         1.179578         1.746460
