19
Iteration:  4517charge 0 multiplicity 1
 C        -0.009310        -0.792819        -0.249482
 C         1.317385        -0.078578        -0.215697
 C         1.755344         1.255929        -0.931791
 C         3.161867         0.841170        -0.292328
 C         4.165502         0.466799        -1.400185
 O         3.422075        -0.687303        -1.750970
 C         2.705894        -0.574545        -0.443547
 O         3.095273         1.155116         1.041641
 C         1.806685         0.424545         1.208935
 H        -0.648126        -0.119317         0.398688
 H        -0.260040        -0.638561        -1.334702
 H         0.010843        -1.839220        -0.035469
 H         1.804452         1.164560        -2.002892
 H         1.326763         2.314146        -0.496597
 H         4.096068         1.138526        -2.216456
 H         5.255801         0.305011        -1.052040
 H         3.145856        -1.407824         0.235746
 H         1.944305        -0.417316         1.847870
 H         0.962362         0.924618         1.726979
