19
Iteration:  2516charge 0 multiplicity 1
 C        -0.051861        -0.745222        -0.259381
 C         1.306054        -0.054017        -0.142372
 C         1.751658         1.120665        -0.950879
 C         3.203756         0.822472        -0.319825
 C         4.322167         0.459234        -1.350653
 O         3.357464        -0.558156        -1.787654
 C         2.747267        -0.627647        -0.460976
 O         3.005647         1.223707         0.950984
 C         1.813674         0.375961         1.331238
 H        -0.816099        -0.186518         0.356997
 H        -0.487222        -0.571228        -1.207403
 H         0.075089        -1.759050        -0.054573
 H         1.722043         1.010223        -2.048858
 H         1.166128         2.061031        -0.563851
 H         4.791998         1.067677        -2.193584
 H         5.204906        -0.170088        -0.988494
 H         2.974081        -1.561049         0.056392
 H         2.135505        -0.373412         1.982830
 H         1.063821         1.044906         1.712401
