19
Iteration:  2182
 C         0.057327        -0.755476        -0.306535
 C         1.322183        -0.037477        -0.137361
 C         1.763913         1.229281        -0.924807
 C         3.180647         0.832888        -0.371782
 C         4.235132         0.471207        -1.344197
 O         3.324693        -0.650001        -1.783134
 C         2.659874        -0.645208        -0.508599
 O         3.059554         1.222218         1.083125
 C         1.837427         0.400839         1.279873
 H        -0.828732        -0.244642        -0.177713
 H         0.091025        -1.293978        -1.251040
 H        -0.092866        -1.556226         0.401448
 H         1.549709         1.110861        -1.995099
 H         1.280323         2.230665        -0.541346
 H         4.469318         1.118578        -2.218463
 H         5.128466         0.050596        -1.139009
 H         3.023088        -1.583573        -0.012421
 H         2.133053        -0.465259         1.821751
 H         1.172847         0.953836         1.907737
