19
Iteration:  1975charge 0 multiplicity 1
 C         0.006926        -0.740614        -0.259420
 C         1.308265         0.036494        -0.142335
 C         1.702649         1.278734        -0.922977
 C         3.160322         0.876854        -0.364148
 C         4.251404         0.455308        -1.348100
 O         3.434108        -0.665995        -1.808325
 C         2.705283        -0.635146        -0.521418
 O         3.008978         1.140819         1.003329
 C         1.798740         0.321542         1.341233
 H        -0.851710        -0.059759        -0.131953
 H         0.049711        -1.242275        -1.261755
 H        -0.101179        -1.537638         0.516340
 H         1.561404         1.075918        -1.947856
 H         1.447912         2.195792        -0.642649
 H         4.388048         1.053232        -2.233764
 H         5.301123         0.179723        -0.961630
 H         3.184082        -1.389399         0.044432
 H         2.100297        -0.625301         1.878547
 H         1.377245         1.059255         2.055794
