19
Iteration:  4964charge 0 multiplicity 1
 C         0.030604        -0.770275        -0.290476
 C         1.354576        -0.115263        -0.213081
 C         1.862862         1.136785        -0.919636
 C         3.212643         0.744880        -0.296019
 C         4.189662         0.543874        -1.393749
 O         3.246532        -0.569365        -1.805996
 C         2.788422        -0.677018        -0.442012
 O         3.089416         1.119401         1.031397
 C         1.697323         0.545071         1.278329
 H        -0.846512        -0.005476        -0.071421
 H        -0.204785        -1.104720        -1.330158
 H         0.150543        -1.510154         0.494359
 H         1.621233         1.118672        -2.031922
 H         1.396562         1.974357        -0.484099
 H         4.343348         1.361738        -2.110787
 H         5.247188         0.207247        -0.990086
 H         3.181148        -1.458156         0.232718
 H         1.891680        -0.173177         2.162138
 H         0.964117         1.311243         1.671015
