19
Iteration:  4003
 C         0.016206        -0.809356        -0.315606
 C         1.310195        -0.020170        -0.179765
 C         1.620556         1.325116        -0.870009
 C         3.139576         0.845090        -0.390034
 C         4.247690         0.496471        -1.281349
 O         3.434078        -0.705633        -1.738370
 C         2.669749        -0.646496        -0.556970
 O         3.175276         1.086599         1.012158
 C         1.816960         0.453463         1.274507
 H        -0.777109        -0.142217         0.199745
 H        -0.276002        -1.069720        -1.337618
 H         0.050495        -1.865850         0.200198
 H         1.270384         1.442913        -1.937606
 H         1.179881         2.300599        -0.527523
 H         4.359449         1.001364        -2.183899
 H         5.294218         0.426016        -0.794477
 H         3.011686        -1.499766         0.006834
 H         2.043966        -0.171091         2.109697
 H         1.003169         1.170061         1.545747
