19
Iteration:   682charge 0 multiplicity 1
 C        -0.093518        -0.721329        -0.219256
 C         1.355194        -0.100040        -0.096526
 C         1.795198         1.241174        -0.750804
 C         3.138763         0.792683        -0.319295
 C         4.185201         0.657737        -1.373627
 O         3.295999        -0.251968        -2.077247
 C         2.632888        -0.656563        -0.667705
 O         3.202889         0.898976         1.119652
 C         1.905697         0.128482         1.423002
 H        -0.911324        -0.428886         0.485274
 H        -0.446115        -0.406876        -1.250454
 H         0.026010        -1.808575        -0.234290
 H         1.642595         1.188873        -1.804262
 H         1.459212         2.116012        -0.307596
 H         4.357714         1.450128        -2.121006
 H         5.083558         0.267016        -1.032629
 H         3.196331        -1.577965        -0.400403
 H         2.135822        -0.724292         2.031431
 H         1.196159         0.892251         1.834109
