19
Iteration:   606
 C        -0.046794        -0.689760        -0.309731
 C         1.315187        -0.106215        -0.049054
 C         1.725994         1.276087        -0.684357
 C         3.132042         0.730242        -0.321756
 C         4.186602         0.671494        -1.415202
 O         3.256836        -0.230936        -2.156121
 C         2.662950        -0.673692        -0.668976
 O         3.160698         0.936092         1.162264
 C         1.990527         0.067062         1.462540
 H        -0.469794        -0.171857        -1.221564
 H         0.007459        -1.817551        -0.422787
 H        -0.626410        -0.550226         0.702990
 H         1.569473         1.364795        -1.736579
 H         1.398973         2.100345        -0.141653
 H         4.413666         1.703387        -1.936599
 H         5.069739         0.074144        -1.214455
 H         3.265091        -1.578163        -0.563608
 H         2.457339        -0.813005         1.815593
 H         1.384713         0.530305         2.283816
