19
Iteration:  1565charge 0 multiplicity 1
 C         0.029795        -0.710741        -0.286834
 C         1.303756        -0.095419        -0.199874
 C         1.744958         1.253295        -0.836288
 C         3.127177         0.832087        -0.318304
 C         4.134656         0.557724        -1.444780
 O         3.405052        -0.637092        -1.845006
 C         2.769480        -0.603278        -0.578293
 O         3.176149         0.986713         1.152504
 C         1.752490         0.414860         1.292383
 H        -0.025952        -1.749592        -0.770790
 H        -0.405285        -0.968564         0.710860
 H        -0.914227        -0.101801        -0.627214
 H         1.848405         1.205773        -1.896100
 H         1.301351         2.112501        -0.463344
 H         4.016148         1.323080        -2.328123
 H         5.202256         0.537484        -0.987863
 H         3.190961        -1.325441         0.137733
 H         1.810440        -0.260658         2.148462
 H         1.089815         1.264536         1.451124
