19
Iteration:  1810charge 0 multiplicity 1
 C        -0.135305        -0.718986        -0.211643
 C         1.314529        -0.141659        -0.127394
 C         1.899114         1.163875        -1.011610
 C         3.212859         0.783982        -0.331599
 C         4.172650         0.561014        -1.356884
 O         3.406109        -0.580816        -1.892484
 C         2.760607        -0.727534        -0.439484
 O         3.066411         1.153468         1.073287
 C         1.735690         0.493565         1.280618
 H        -0.828628        -0.151673         0.412131
 H        -0.328319        -0.818540        -1.353027
 H        -0.312716        -1.777553         0.244947
 H         1.876253         1.081297        -2.087372
 H         1.626577         2.095115        -0.684455
 H         4.351141         1.277005        -2.115681
 H         5.227465         0.283048        -1.050952
 H         3.230906        -1.538560         0.175958
 H         1.913908        -0.284546         2.034253
 H         0.916681         1.123058         1.736694
