19
Iteration:  2807
 C         0.009591        -0.777885        -0.262902
 C         1.325016        -0.106883        -0.149835
 C         1.730686         1.129177        -0.962942
 C         3.243316         0.716111        -0.248010
 C         4.255945         0.492965        -1.406024
 O         3.310855        -0.456780        -1.865682
 C         2.791292        -0.691596        -0.491377
 O         3.051066         1.123577         1.098253
 C         1.755634         0.535240         1.299329
 H        -0.844332        -0.076420        -0.310619
 H         0.108586        -1.433667        -1.147898
 H        -0.338919        -1.517217         0.542443
 H         1.846409         0.967395        -2.070028
 H         1.359947         2.147584        -0.547548
 H         4.266918         1.226892        -2.315727
 H         5.335665         0.179678        -1.161636
 H         3.100242        -1.612262         0.065087
 H         1.707783        -0.068726         2.146676
 H         1.083237         1.376723         1.573201
