19
Iteration:  1070charge 0 multiplicity 1
 C        -0.042374        -0.775655        -0.261569
 C         1.318341        -0.077668        -0.212289
 C         1.716640         1.372369        -0.861028
 C         3.140617         0.828688        -0.321255
 C         4.232543         0.550025        -1.426776
 O         3.378169        -0.623031        -1.870606
 C         2.676367        -0.643316        -0.591322
 O         3.111017         1.117551         1.123364
 C         1.908868         0.269670         1.386364
 H         0.070006        -1.783773        -0.613718
 H        -0.561495        -0.726388         0.615644
 H        -0.605056        -0.229223        -1.039370
 H         1.644998         1.323586        -1.967421
 H         1.281170         2.325419        -0.477619
 H         4.416971         1.361209        -2.255055
 H         5.100161         0.187345        -0.895571
 H         2.973380        -1.555078         0.015818
 H         1.988680        -0.660975         2.016674
 H         1.208876         0.977702         1.841972
