19
Iteration:  3078
 C         0.037280        -0.818152        -0.267782
 C         1.285341        -0.005877        -0.130814
 C         1.720510         1.328692        -0.871547
 C         3.107311         0.822858        -0.385209
 C         4.267861         0.436693        -1.324971
 O         3.427658        -0.694202        -1.770139
 C         2.638105        -0.547278        -0.511773
 O         3.087006         1.126216         0.939264
 C         1.788703         0.412932         1.295892
 H        -0.982976        -0.693531         0.190486
 H        -0.214278        -0.841890        -1.347106
 H         0.429810        -1.829372         0.114576
 H         1.545328         1.456273        -1.963899
 H         1.440669         2.287703        -0.629278
 H         4.453677         1.031119        -2.203523
 H         5.247914        -0.049808        -0.789381
 H         3.170344        -1.086575         0.287724
 H         2.134562        -0.418157         1.949817
 H         1.150044         1.096039         1.867091
