19
Iteration:  1440charge 0 multiplicity 1
 C         0.009844        -0.722900        -0.253943
 C         1.377274        -0.069572        -0.132197
 C         1.781889         1.201478        -0.862133
 C         3.125075         0.759797        -0.313573
 C         4.193991         0.639590        -1.388821
 O         3.385498        -0.629454        -1.802995
 C         2.761662        -0.709667        -0.532300
 O         3.071368         1.049999         1.042961
 C         1.757489         0.433212         1.232815
 H        -0.457494        -0.336861        -1.129273
 H        -0.015424        -1.835063        -0.131564
 H        -0.663985        -0.329725         0.466090
 H         1.784036         1.370657        -1.961156
 H         1.478091         2.263813        -0.543114
 H         3.988729         1.379610        -2.272226
 H         5.252632         0.452287        -1.217450
 H         2.934937        -1.604536         0.063775
 H         1.844111        -0.347077         2.033543
 H         1.215118         1.287708         1.686255
