19
Iteration:   212charge 0 multiplicity 1
 C        -0.071502        -0.768370        -0.205456
 C         1.353710        -0.088760        -0.130853
 C         1.741394         1.413757        -0.437374
 C         3.129361         0.781265        -0.259903
 C         4.121675         0.887548        -1.493894
 O         3.209408        -0.053151        -2.140079
 C         2.628306        -0.490749        -0.820332
 O         3.352371         0.436728         1.150273
 C         1.971150        -0.121135         1.325315
 H        -0.636732        -0.240907         0.617393
 H        -0.559869        -0.469432        -1.154334
 H        -0.115098        -1.751031         0.055568
 H         1.473665         1.697561        -1.484795
 H         1.376598         2.246923         0.282382
 H         4.122870         1.839983        -2.109050
 H         5.068552         0.490096        -1.442029
 H         3.058399        -1.449343        -0.640578
 H         2.081150        -1.079131         1.854387
 H         1.412283         0.630337         1.950420
