19
Iteration:  3433
 C        -0.027221        -0.781592        -0.329644
 C         1.339567        -0.072715        -0.100414
 C         1.788929         1.093603        -0.960408
 C         3.233612         0.714196        -0.326624
 C         4.240011         0.418408        -1.338174
 O         3.313644        -0.562905        -1.798771
 C         2.702373        -0.671646        -0.440616
 O         3.024091         1.335865         1.055846
 C         1.848283         0.470143         1.242757
 H        -0.772563        -0.224472         0.357938
 H        -0.378738        -0.444548        -1.374184
 H        -0.044015        -1.880482        -0.102689
 H         1.458337         1.059078        -2.053139
 H         1.507771         2.045627        -0.600905
 H         4.487503         1.184617        -2.075854
 H         5.208973         0.012180        -1.102789
 H         3.056513        -1.589929         0.121319
 H         2.263184        -0.254228         1.906888
 H         1.054766         1.107105         1.682107
