19
Iteration:  1772
 C        -0.075896        -0.739829        -0.154309
 C         1.347902        -0.079622        -0.196982
 C         1.726227         1.241696        -0.970644
 C         3.110932         0.844608        -0.308692
 C         4.244839         0.510173        -1.347589
 O         3.471026        -0.631152        -1.856014
 C         2.719641        -0.660531        -0.545614
 O         3.129777         1.060036         1.099259
 C         1.754757         0.474605         1.238694
 H        -0.850792        -0.013360        -0.498415
 H        -0.129578        -1.539059        -0.842464
 H        -0.330970        -1.198998         0.783379
 H         1.609823         1.159404        -2.075309
 H         1.217893         2.200179        -0.544104
 H         4.491022         1.332543        -2.197687
 H         5.088699         0.076492        -0.862214
 H         3.144765        -1.457568         0.068660
 H         1.898869        -0.375249         1.972254
 H         1.067112         1.279067         1.555607
