19
Iteration:   890charge 0 multiplicity 1
 C        -0.097134        -0.690303        -0.225206
 C         1.391054        -0.132964        -0.164694
 C         1.873842         1.198549        -0.813048
 C         3.183107         0.760104        -0.244722
 C         4.119555         0.671868        -1.439002
 O         3.325814        -0.396582        -1.948882
 C         2.774528        -0.704445        -0.569669
 O         3.142477         0.960338         1.110863
 C         1.761254         0.296608         1.328143
 H        -0.819809         0.112664        -0.378600
 H        -0.342976        -1.327244        -1.084860
 H        -0.271184        -1.197813         0.655780
 H         1.698359         1.179713        -1.865482
 H         1.378312         2.047406        -0.442589
 H         4.239924         1.613425        -2.099588
 H         5.139887         0.212062        -1.330325
 H         3.183675        -1.658137        -0.159187
 H         1.918503        -0.541365         2.033587
 H         1.066846         1.165974         1.450816
