19
Iteration:  2617charge 0 multiplicity 1
 C        -0.012602        -0.726488        -0.350114
 C         1.392206        -0.104822        -0.096140
 C         1.726242         1.210385        -0.943468
 C         3.224159         0.718248        -0.258596
 C         4.234258         0.497757        -1.430019
 O         3.307432        -0.592990        -1.838043
 C         2.760726        -0.676177        -0.420331
 O         3.038692         1.231022         1.026736
 C         1.806457         0.444071         1.324145
 H        -0.689847         0.141754        -0.498289
 H         0.219613        -1.266852        -1.291197
 H        -0.280243        -1.519009         0.331886
 H         1.660836         0.966067        -2.082419
 H         1.193888         2.100945        -0.392076
 H         4.165340         1.321402        -2.101544
 H         5.225028         0.075097        -1.003283
 H         3.063288        -1.617146         0.055440
 H         1.910926        -0.371242         1.943928
 H         1.169547         1.030940         1.945092
