19
Iteration:  3083charge 0 multiplicity 1
 C         0.031060        -0.830164        -0.276977
 C         1.244143        -0.007866        -0.086988
 C         1.705867         1.276826        -0.866106
 C         3.127287         0.840917        -0.401526
 C         4.267318         0.398416        -1.299476
 O         3.436445        -0.688229        -1.810175
 C         2.637626        -0.500053        -0.475668
 O         3.119385         1.162686         0.915924
 C         1.793560         0.380351         1.315409
 H        -0.900619        -0.487847         0.139013
 H        -0.002805        -0.899631        -1.381716
 H         0.396761        -1.805591        -0.053429
 H         1.507523         1.409996        -1.928900
 H         1.459052         2.397631        -0.523764
 H         4.539868         1.060135        -2.161533
 H         5.075080        -0.011483        -0.883177
 H         3.154395        -1.148685         0.270305
 H         1.918416        -0.486818         2.032278
 H         1.029736         1.101710         1.723751
