19
Iteration:  2880charge 0 multiplicity 1
 C        -0.044557        -0.685151        -0.182690
 C         1.320702        -0.059461        -0.128117
 C         1.795737         1.275010        -0.957893
 C         3.124080         0.863769        -0.365428
 C         4.187989         0.578250        -1.365476
 O         3.478710        -0.723136        -1.751568
 C         2.778953        -0.683356        -0.518168
 O         3.005233         1.160255         0.976905
 C         1.796480         0.321312         1.246342
 H        -0.796434        -0.437734         0.553280
 H        -0.362480        -0.557168        -1.226489
 H        -0.004076        -1.792853        -0.047362
 H         1.769681         1.179584        -2.018918
 H         1.282274         2.150220        -0.535454
 H         4.160772         1.294738        -2.106018
 H         5.218118         0.419758        -1.038437
 H         3.197965        -1.367227         0.230072
 H         2.037573        -0.652736         1.872742
 H         0.997644         0.866506         1.797209
