19
Iteration:  1104charge 0 multiplicity 1
 C         0.001814        -0.768617        -0.211540
 C         1.363627        -0.111876        -0.103655
 C         1.758959         1.197690        -0.888860
 C         3.228801         0.746350        -0.307014
 C         4.271997         0.608450        -1.469175
 O         3.286285        -0.442323        -1.868552
 C         2.688810        -0.689188        -0.552769
 O         3.137768         1.009228         1.140134
 C         1.725118         0.437367         1.303686
 H         0.010715        -1.710583        -0.680674
 H        -0.571601        -0.947403         0.572661
 H        -0.568885        -0.165941        -0.916831
 H         1.686840         0.954252        -1.977447
 H         1.415706         2.276016        -0.661467
 H         4.559061         1.524464        -2.114637
 H         5.259743         0.069993        -1.272762
 H         3.013119        -1.715796        -0.285518
 H         1.701360        -0.207916         2.245553
 H         0.995403         1.232278         1.336004
