19
Iteration:  4697
 C        -0.047675        -0.724541        -0.137868
 C         1.333630        -0.054444        -0.243553
 C         1.780219         1.225360        -0.945148
 C         3.187746         0.798724        -0.322620
 C         4.276902         0.587713        -1.325479
 O         3.435507        -0.704442        -1.786145
 C         2.699855        -0.654556        -0.535524
 O         3.071204         1.121717         0.988622
 C         1.705591         0.452210         1.252947
 H        -0.663969        -0.178832         0.554645
 H        -0.524322        -1.099757        -1.034469
 H         0.117743        -1.771102         0.331935
 H         1.793419         1.166972        -2.042581
 H         1.456903         2.181729        -0.641647
 H         4.297603         1.232689        -2.274367
 H         5.216619         0.311951        -0.928674
 H         2.784550        -1.497657         0.169455
 H         1.923953        -0.436878         1.912940
 H         1.012563         1.269531         1.627227
