19
Iteration:  3164
 C        -0.085403        -0.710395        -0.173022
 C         1.331963        -0.132317        -0.129083
 C         1.700391         1.286872        -0.984296
 C         3.166247         0.834280        -0.374975
 C         4.200072         0.565152        -1.420109
 O         3.621071        -0.693373        -1.856325
 C         2.694836        -0.653836        -0.444615
 O         3.068017         1.054948         1.062360
 C         1.748547         0.451657         1.261150
 H        -0.759994         0.230962        -0.195550
 H        -0.361105        -1.424972        -0.973278
 H        -0.292034        -1.030483         0.887031
 H         1.465300         0.966425        -2.044529
 H         1.332844         2.172934        -0.497200
 H         4.194722         1.200077        -2.321674
 H         5.208824         0.374860        -0.937321
 H         3.104699        -1.422064         0.231359
 H         1.782876        -0.316149         2.010418
 H         0.984292         1.180749         1.550573
