19
Iteration:  3931
 C        -0.100220        -0.675029        -0.197172
 C         1.379175        -0.196985        -0.164048
 C         1.804198         1.122013        -0.944742
 C         3.154712         0.790261        -0.321319
 C         4.213379         0.581346        -1.313154
 O         3.412748        -0.570280        -1.836231
 C         2.832165        -0.753753        -0.509541
 O         3.078160         1.128061         1.026748
 C         1.690672         0.505100         1.261208
 H        -0.810497         0.006689         0.246585
 H        -0.445122        -1.018407        -1.206204
 H        -0.188935        -1.599218         0.306779
 H         1.721834         1.267273        -2.077556
 H         1.585514         2.105790        -0.622352
 H         4.246307         1.501513        -2.109351
 H         5.278710         0.305882        -1.154923
 H         3.163246        -1.677767         0.076722
 H         1.612490        -0.272472         2.115478
 H         1.051765         1.397605         1.473178
