19
Iteration:  3345
 C        -0.047940        -0.671954        -0.117955
 C         1.264722        -0.034235        -0.088775
 C         1.797537         1.176940        -0.979600
 C         3.195299         0.759399        -0.333804
 C         4.317746         0.533010        -1.322357
 O         3.431587        -0.596226        -1.871012
 C         2.739460        -0.726581        -0.536039
 O         2.986063         1.130540         1.001559
 C         1.772744         0.437948         1.242880
 H        -0.829972         0.116120        -0.205779
 H        -0.144761        -1.483365        -0.881414
 H        -0.512317        -1.250408         0.703028
 H         1.841370         0.914970        -2.025819
 H         1.195762         2.079047        -1.001836
 H         4.532106         1.291470        -2.153628
 H         5.240245         0.151632        -0.777535
 H         3.225795        -1.523950         0.107983
 H         1.992209        -0.305303         1.980819
 H         1.057405         1.188828         1.621484
