19
Iteration:  4493
 C         0.046366        -0.798752        -0.255710
 C         1.285055        -0.008750        -0.171375
 C         1.892228         1.258435        -0.923560
 C         3.182011         0.822148        -0.288346
 C         4.180551         0.578499        -1.567288
 O         3.404590        -0.706100        -1.787188
 C         2.772618        -0.709970        -0.420827
 O         3.035007         1.078306         1.105568
 C         1.666239         0.526424         1.296440
 H        -0.706436        -0.314402         0.389421
 H        -0.178201        -0.871013        -1.347303
 H         0.314522        -1.850039        -0.005831
 H         1.628969         1.050683        -2.005456
 H         1.414831         2.289532        -0.484370
 H         4.079145         1.335920        -2.433239
 H         5.234437         0.258304        -1.327752
 H         3.060212        -1.664856         0.174197
 H         1.513813        -0.160128         2.106736
 H         1.060948         1.372384         1.643185
