19
Iteration:  2844charge 0 multiplicity 1
 C        -0.077078        -0.736688        -0.132734
 C         1.304930        -0.044607        -0.146408
 C         1.684818         1.212566        -0.946628
 C         3.092165         0.855304        -0.302219
 C         4.270042         0.503081        -1.284928
 O         3.516666        -0.652479        -1.860925
 C         2.736472        -0.637521        -0.595193
 O         3.067266         1.153223         1.035629
 C         1.796443         0.368350         1.245793
 H        -0.986799        -0.100306         0.210348
 H        -0.275591        -0.873763        -1.233612
 H         0.102144        -1.696820         0.328894
 H         1.708753         1.164283        -2.002644
 H         1.199334         2.096141        -0.725878
 H         4.355392         1.148825        -2.257898
 H         5.252580         0.216367        -0.895387
 H         3.202104        -1.441603        -0.033067
 H         1.945964        -0.555269         1.912119
 H         1.216390         1.206410         1.681273
