19
Iteration:  4778charge 0 multiplicity 1
 C         0.076651        -0.724332        -0.365360
 C         1.417589        -0.090339        -0.124479
 C         1.771046         1.231187        -0.909668
 C         3.185514         0.835637        -0.319680
 C         4.225827         0.501538        -1.339361
 O         3.252167        -0.698714        -1.779543
 C         2.682198        -0.696256        -0.491293
 O         2.987758         1.284067         0.998547
 C         1.902294         0.376071         1.306923
 H        -0.771142         0.052752        -0.338026
 H        -0.116618        -1.136305        -1.391371
 H        -0.219101        -1.387073         0.434297
 H         1.784886         0.985128        -1.953125
 H         1.243948         2.150804        -0.650480
 H         4.464010         1.176953        -2.090080
 H         5.170814         0.048750        -0.984081
 H         2.844799        -1.422964         0.270513
 H         2.329244        -0.382865         2.068694
 H         1.048066         0.772495         1.875084
