19
Iteration:  2144
 C         0.019364        -0.797384        -0.210721
 C         1.383430        -0.071795        -0.198435
 C         1.738627         1.248983        -0.916880
 C         3.154422         0.848044        -0.309839
 C         4.185724         0.553360        -1.428473
 O         3.410892        -0.723241        -1.845449
 C         2.732358        -0.639742        -0.526928
 O         3.093690         1.062585         1.133182
 C         1.714360         0.545078         1.257747
 H        -0.806804        -0.278724         0.426038
 H        -0.349202        -0.596506        -1.233911
 H         0.365887        -1.834831        -0.035840
 H         1.728627         1.154642        -1.997916
 H         1.510939         2.166978        -0.592404
 H         4.332131         1.377169        -2.092562
 H         5.103605         0.080946        -0.893239
 H         2.942002        -1.523439         0.120167
 H         1.784831        -0.149150         2.153850
 H         0.931966         1.350353         1.376000
