19
Iteration:   523
 C        -0.039173        -0.726986        -0.266867
 C         1.284544        -0.009911        -0.137830
 C         1.766648         1.386409        -0.593580
 C         3.180996         0.734447        -0.287778
 C         4.035159         0.823894        -1.498464
 O         3.363192        -0.332136        -2.063150
 C         2.652786        -0.644409        -0.665699
 O         3.237089         0.722453         1.149365
 C         1.933544         0.072495         1.348146
 H         0.112825        -1.776989        -0.408242
 H        -0.493335        -0.698562         0.727905
 H        -0.773150        -0.418892        -1.045728
 H         1.592201         1.735305        -1.682155
 H         1.511823         2.149380         0.268873
 H         3.796839         1.703469        -2.075007
 H         5.111904         0.683009        -1.451962
 H         3.121468        -1.625273        -0.421897
 H         2.061707        -1.015882         1.820939
 H         1.338457         0.805785         1.938174
