19
Iteration:  2686charge 0 multiplicity 1
 C        -0.099469        -0.799629        -0.109626
 C         1.348767        -0.068928        -0.192254
 C         1.841526         1.223350        -0.992847
 C         3.134072         0.823232        -0.363056
 C         4.262440         0.525129        -1.325433
 O         3.452621        -0.601637        -1.896367
 C         2.728665        -0.728614        -0.511656
 O         3.026421         1.087390         1.113873
 C         1.747795         0.550020         1.224177
 H        -0.692519        -0.305871         0.616590
 H        -0.685916        -0.676845        -1.041462
 H         0.017925        -1.930582        -0.042203
 H         1.926450         1.115618        -2.031048
 H         1.513985         2.143301        -0.480391
 H         4.223833         1.188436        -2.179578
 H         5.247302         0.383155        -0.793090
 H         3.207853        -1.601708        -0.034955
 H         1.795734        -0.173191         1.988746
 H         0.971608         1.211341         1.593558
