19
Iteration:  4022
 C         0.013365        -0.787820        -0.259523
 C         1.298526        -0.017331        -0.139759
 C         1.786900         1.203772        -0.928785
 C         3.108642         0.752181        -0.342549
 C         4.213927         0.502303        -1.402698
 O         3.412878        -0.617224        -1.873073
 C         2.715776        -0.630599        -0.462148
 O         3.081495         1.081435         1.089667
 C         1.740667         0.534634         1.301004
 H        -0.862731        -0.167267        -0.029540
 H         0.063293        -1.165345        -1.294249
 H         0.126673        -1.692960         0.428509
 H         1.837544         1.184564        -1.963402
 H         1.345948         2.152024        -0.536315
 H         4.440338         1.360115        -2.070709
 H         5.274068         0.156367        -1.131827
 H         3.121494        -1.529968         0.018727
 H         1.802355        -0.358266         2.041134
 H         1.158610         1.368098         1.716536
