19
Iteration:  4038
 C        -0.009089        -0.778457        -0.233012
 C         1.365625        -0.048866        -0.090099
 C         1.893514         1.162127        -0.988108
 C         3.294389         0.784657        -0.258309
 C         4.238637         0.565584        -1.417815
 O         3.274200        -0.553604        -1.896360
 C         2.760241        -0.706390        -0.500164
 O         3.016020         1.125063         1.102207
 C         1.671099         0.464237         1.294207
 H        -0.905714        -0.086534        -0.135251
 H        -0.186915        -1.265644        -1.202159
 H        -0.173067        -1.475649         0.590603
 H         1.781737         0.641167        -2.040334
 H         1.672804         2.194822        -0.778055
 H         4.315868         1.269068        -2.273674
 H         5.180767         0.201994        -1.064911
 H         3.190693        -1.457647         0.170718
 H         1.788436        -0.255287         2.022159
 H         0.872470         1.200092         1.569901
