19
Iteration:  4103
 C        -0.098661        -0.716941        -0.249486
 C         1.259540         0.026038        -0.159072
 C         1.644298         1.262439        -0.961408
 C         3.082162         0.817673        -0.399189
 C         4.270082         0.538207        -1.380014
 O         3.593938        -0.662228        -1.761587
 C         2.649367        -0.591112        -0.483228
 O         3.093451         1.037404         1.024972
 C         1.901180         0.391898         1.320305
 H        -1.059339        -0.145438         0.034536
 H        -0.323124        -1.046225        -1.305525
 H        -0.089340        -1.669461         0.332539
 H         1.257763         0.822639        -1.987541
 H         1.280118         2.260612        -0.806589
 H         4.461233         1.159980        -2.231913
 H         5.171857         0.184171        -0.775840
 H         3.056547        -1.319890         0.161894
 H         2.044750        -0.581563         1.785739
 H         1.467091         1.017452         2.153907
