19
Iteration:  3775charge 0 multiplicity 1
 C        -0.009418        -0.746251        -0.176524
 C         1.256779         0.022871        -0.134351
 C         1.744261         1.230078        -0.926149
 C         3.123311         0.824076        -0.437238
 C         4.353288         0.527652        -1.381473
 O         3.483742        -0.737309        -1.837269
 C         2.737720        -0.616825        -0.480264
 O         2.939942         1.177934         1.022770
 C         1.775274         0.375382         1.256545
 H        -0.633282        -0.130942         0.476765
 H        -0.403915        -0.752538        -1.147174
 H         0.202561        -1.712682         0.216677
 H         1.592866         1.076836        -1.939294
 H         1.512472         2.208360        -0.479443
 H         4.479382         1.307154        -2.240869
 H         5.178770         0.066289        -0.843316
 H         3.146593        -1.265653         0.374134
 H         2.074862        -0.598357         1.733917
 H         1.047088         0.770188         2.057173
