19
Iteration:   913
 C         0.015448        -0.694880        -0.288021
 C         1.330086        -0.025461        -0.097840
 C         1.671924         1.193310        -0.852304
 C         3.161160         0.751993        -0.292143
 C         4.245205         0.623632        -1.421643
 O         3.305803        -0.498209        -1.943310
 C         2.728414        -0.631327        -0.592466
 O         3.103897         1.021700         1.133382
 C         1.858380         0.240796         1.371147
 H        -0.690668         0.057809         0.065914
 H        -0.181370        -0.567137        -1.311079
 H        -0.212316        -1.647168         0.073763
 H         1.568717         1.133123        -1.915413
 H         1.276362         2.113168        -0.499882
 H         4.463569         1.534658        -2.150662
 H         5.196859         0.245406        -1.068636
 H         3.166213        -1.539077        -0.062331
 H         2.213983        -0.748765         1.734612
 H         1.267665         0.965001         2.004451
