19
Iteration:   399
 C        -0.128726        -0.643303        -0.208610
 C         1.309481        -0.101738        -0.076433
 C         1.679922         1.221319        -0.546850
 C         3.140480         0.746077        -0.245103
 C         4.113812         0.823163        -1.447173
 O         3.297856        -0.120451        -2.161456
 C         2.711639        -0.612716        -0.793924
 O         3.320470         0.668634         1.122113
 C         1.953228        -0.004561         1.377530
 H        -0.865100         0.105492        -0.427552
 H        -0.110376        -1.363635        -1.019896
 H        -0.555580        -1.218328         0.611022
 H         1.546756         1.373992        -1.621051
 H         1.242287         2.133452        -0.057847
 H         4.234754         1.784158        -2.044552
 H         5.088253         0.416858        -1.227267
 H         3.195864        -1.488706        -0.373757
 H         2.143810        -1.035654         1.823612
 H         1.586729         0.802800         2.076650
