19
Iteration:  1299charge 0 multiplicity 1
 C        -0.041201        -0.686285        -0.307102
 C         1.279977        -0.096347        -0.055615
 C         1.726843         1.164418        -0.863034
 C         3.187551         0.754212        -0.309283
 C         4.256160         0.510865        -1.396046
 O         3.405074        -0.518549        -1.872960
 C         2.731731        -0.643577        -0.530248
 O         3.077478         1.187666         0.997967
 C         1.807115         0.334081         1.349499
 H        -0.334317        -0.904541        -1.360251
 H        -0.220472        -1.702521         0.290396
 H        -1.006227        -0.099116        -0.021493
 H         1.587655         1.232647        -1.904924
 H         1.324199         2.009150        -0.443927
 H         4.595496         1.318314        -2.222478
 H         5.193464         0.117442        -1.028309
 H         3.169456        -1.504601        -0.004494
 H         2.232318        -0.539274         1.816051
 H         1.115089         0.746160         2.050809
