19
Iteration:  4898charge 0 multiplicity 1
 C        -0.034215        -0.697618        -0.235287
 C         1.363551        -0.109049        -0.163996
 C         1.647547         1.249138        -0.954535
 C         3.127620         0.833622        -0.367840
 C         4.261283         0.537028        -1.219005
 O         3.402312        -0.689019        -1.746007
 C         2.663155        -0.633306        -0.554390
 O         3.099848         1.206661         0.947856
 C         1.900979         0.361786         1.256036
 H        -0.978333        -0.041287        -0.065427
 H        -0.310571        -1.049590        -1.300957
 H        -0.230060        -1.638702         0.325105
 H         1.431011         1.015269        -1.991741
 H         1.251255         2.076990        -0.448971
 H         4.685318         1.101214        -2.054222
 H         5.176950         0.131269        -0.673392
 H         3.107725        -1.413175         0.066330
 H         2.252626        -0.560595         1.819235
 H         1.177041         1.023015         1.791267
