19
Iteration:   120
 C        -0.030090        -0.712941        -0.243941
 C         1.329682        -0.067262        -0.064819
 C         1.769878         1.368645        -0.307078
 C         3.157967         0.859555        -0.273020
 C         4.048461         0.923687        -1.485778
 O         3.158654        -0.044894        -2.109566
 C         2.639683        -0.417899        -0.907425
 O         3.299738         0.431565         1.067487
 C         2.058432        -0.259450         1.302850
 H        -0.223669        -1.300700        -1.107517
 H        -0.163968        -1.443998         0.571222
 H        -0.853733         0.054246        -0.214418
 H         1.456653         1.726962        -1.249857
 H         1.448462         2.096434         0.363002
 H         4.215332         1.741849        -2.099523
 H         5.062866         0.569568        -1.198539
 H         3.102558        -1.367693        -0.463536
 H         2.238553        -1.378631         1.521445
 H         1.449218         0.205324         2.121033
