19
Iteration:  2666charge 0 multiplicity 1
 C         0.018939        -0.793491        -0.223511
 C         1.293365         0.029656        -0.162781
 C         1.680081         1.293776        -0.924571
 C         3.160274         0.821584        -0.333984
 C         4.294375         0.477372        -1.361736
 O         3.442694        -0.660012        -1.766702
 C         2.673166        -0.638997        -0.549973
 O         3.109972         1.065879         0.991521
 C         1.704828         0.426095         1.246296
 H        -0.610355        -0.391108         0.591491
 H        -0.423620        -0.883588        -1.228365
 H         0.345292        -1.840440         0.069268
 H         1.566053         1.161093        -1.955632
 H         1.461240         2.213480        -0.525144
 H         4.457110         1.378573        -2.052315
 H         5.210379         0.132764        -0.997569
 H         3.142943        -1.282944         0.213129
 H         1.824963        -0.194492         2.196165
 H         1.037146         1.238839         1.640548
