19
Iteration:   742
 C        -0.062422        -0.761714        -0.178403
 C         1.227269        -0.022089        -0.125018
 C         1.755502         1.347957        -0.709249
 C         3.153433         0.799276        -0.329317
 C         4.239320         0.737721        -1.406319
 O         3.396599        -0.503570        -2.039419
 C         2.691069        -0.610811        -0.737956
 O         3.171222         0.822898         1.129258
 C         1.846765         0.234728         1.367253
 H        -0.183148        -1.637462         0.479423
 H        -0.955583        -0.128346        -0.001217
 H        -0.331287        -1.159373        -1.267952
 H         1.593755         1.480945        -1.808353
 H         1.360037         2.264131        -0.135920
 H         4.118993         1.566769        -2.119129
 H         5.337418         0.505718        -1.132993
 H         3.210708        -1.353225        -0.134275
 H         2.044105        -0.705847         1.841615
 H         1.266859         0.772806         2.093992
