19
Iteration:  4362
 C         0.010100        -0.708544        -0.292334
 C         1.317850        -0.168043        -0.042540
 C         1.745874         1.079886        -0.969889
 C         3.141557         0.758695        -0.318752
 C         4.212260         0.523259        -1.408662
 O         3.435468        -0.571901        -1.896044
 C         2.755514        -0.638309        -0.477810
 O         3.051574         1.101293         1.065691
 C         1.751319         0.548510         1.367440
 H        -0.766355        -0.006013         0.027452
 H        -0.103146        -0.671940        -1.369214
 H        -0.015115        -1.689678         0.246840
 H         1.610890         0.863720        -2.130887
 H         1.351110         2.149707        -0.812267
 H         4.341013         1.307379        -2.135762
 H         5.167058         0.276241        -0.934833
 H         3.202799        -1.509653         0.183194
 H         1.849785         0.025725         2.340488
 H         1.110614         1.453900         1.413828
