19
Iteration:  2959
 C         0.033258        -0.880590        -0.200445
 C         1.292999         0.005495        -0.165094
 C         1.794655         1.347704        -0.892484
 C         3.208001         0.856909        -0.285881
 C         4.247852         0.463761        -1.443136
 O         3.378022        -0.690803        -1.815377
 C         2.745966        -0.560155        -0.562559
 O         2.978045         1.133270         1.063601
 C         1.766557         0.386538         1.279874
 H        -0.825962        -0.221754        -0.241554
 H         0.065367        -1.438413        -1.132373
 H         0.003124        -1.423153         0.793411
 H         1.679603         1.295502        -2.053914
 H         1.437623         2.426424        -0.709636
 H         4.351057         1.139871        -2.214093
 H         5.179529         0.085364        -1.045637
 H         3.022546        -1.446216         0.067890
 H         2.049989        -0.591264         1.838280
 H         1.020031         1.081150         1.794645
