19
Iteration:  4951charge 0 multiplicity 1
 C         0.073493        -0.742350        -0.290099
 C         1.403541        -0.076833        -0.153663
 C         1.819024         1.185362        -0.929385
 C         3.190382         0.715521        -0.261893
 C         4.115407         0.540681        -1.495044
 O         3.346952        -0.574306        -1.822331
 C         2.758308        -0.755829        -0.391297
 O         3.045160         1.129990         1.133990
 C         1.711663         0.548835         1.239578
 H        -0.684909         0.014752        -0.048441
 H        -0.129744        -1.279586        -1.241847
 H        -0.181791        -1.567686         0.382198
 H         1.911847         1.151231        -2.032908
 H         1.576163         2.199518        -0.499321
 H         3.990631         1.312969        -2.348804
 H         5.204242         0.209644        -1.397211
 H         3.288842        -1.659588         0.046725
 H         1.617928        -0.266811         1.952681
 H         1.025709         1.430104         1.420936
