19
Iteration:  3020
 C        -0.105493        -0.617568        -0.189625
 C         1.322555        -0.142960        -0.069268
 C         1.742560         1.048140        -0.991068
 C         3.150472         0.735509        -0.370075
 C         4.242466         0.640783        -1.406055
 O         3.478888        -0.543398        -1.936971
 C         2.841467        -0.741038        -0.421959
 O         3.039044         1.107738         1.033245
 C         1.708500         0.461160         1.335578
 H        -0.900351         0.154950         0.196657
 H        -0.284904        -0.970688        -1.230170
 H        -0.395875        -1.539550         0.334126
 H         1.691391         0.828213        -2.007286
 H         1.558709         1.949972        -0.446010
 H         4.613990         1.458409        -2.185203
 H         5.200726         0.293949        -0.859809
 H         3.175292        -1.673640         0.020763
 H         1.868720        -0.041902         2.251125
 H         1.111330         1.321119         1.560943
