19
Iteration:  2014charge 0 multiplicity 1
 C         0.063037        -0.772144        -0.281239
 C         1.370533        -0.098700        -0.117737
 C         1.858656         1.115005        -0.931606
 C         3.185342         0.738109        -0.234656
 C         4.141477         0.551323        -1.408775
 O         3.269524        -0.549581        -1.860670
 C         2.800025        -0.678449        -0.506052
 O         3.080516         1.094359         1.036026
 C         1.694365         0.552200         1.300493
 H        -0.699038         0.005011        -0.589539
 H         0.088958        -1.547111        -1.062408
 H        -0.324495        -1.225623         0.656820
 H         1.808902         1.164878        -2.072839
 H         1.430968         2.170549        -0.472885
 H         4.458719         1.471964        -2.056387
 H         5.093551         0.099312        -0.922777
 H         3.204483        -1.605347         0.036525
 H         1.683800        -0.123532         2.135923
 H         1.044971         1.403397         1.526985
