19
Iteration:  2211
 C        -0.049001        -0.657486        -0.289960
 C         1.321104        -0.162312        -0.098494
 C         1.773225         1.134209        -0.909756
 C         3.139039         0.803665        -0.385052
 C         4.236992         0.528736        -1.349536
 O         3.375694        -0.559870        -1.857813
 C         2.768286        -0.680631        -0.477368
 O         3.032229         1.185125         0.999273
 C         1.853263         0.425768         1.355434
 H        -0.875060         0.110854        -0.558446
 H        -0.222493        -1.430372        -1.110896
 H        -0.337224        -1.260498         0.666951
 H         1.545143         0.974325        -1.943475
 H         1.371105         2.014007        -0.562935
 H         4.600148         1.226395        -2.127770
 H         5.236165        -0.049786        -0.928766
 H         3.233636        -1.545082         0.077502
 H         2.088389        -0.435113         2.120345
 H         1.072632         1.114796         1.788964
