19
Iteration:   646
 C         0.011520        -0.710135        -0.250278
 C         1.378349        -0.074683        -0.228048
 C         1.724192         1.454182        -0.644570
 C         3.141587         0.832688        -0.271660
 C         4.024284         0.746621        -1.507562
 O         3.330018        -0.459480        -2.000958
 C         2.726149        -0.618851        -0.663965
 O         3.261402         0.702428         1.180825
 C         1.861259         0.158744         1.309175
 H        -0.895917        -0.114455        -0.191605
 H        -0.042397        -1.452791        -1.062537
 H        -0.038251        -1.266567         0.603969
 H         1.626728         1.834468        -1.678518
 H         1.279582         2.191236         0.079153
 H         3.841068         1.546730        -2.121187
 H         5.105948         0.702020        -1.350493
 H         3.112994        -1.399605        -0.003226
 H         1.748602        -0.802548         1.908926
 H         1.153452         0.823389         1.844853
