19
Iteration:  3024
 C        -0.100967        -0.639456        -0.188110
 C         1.326745        -0.113300        -0.072983
 C         1.759475         1.062501        -0.980981
 C         3.171684         0.724525        -0.378763
 C         4.255823         0.662582        -1.408152
 O         3.443662        -0.543456        -1.905231
 C         2.886911        -0.746709        -0.421035
 O         2.999436         1.091589         1.023111
 C         1.712377         0.474034         1.321424
 H        -0.885215        -0.056708         0.250364
 H        -0.380924        -0.813457        -1.242178
 H        -0.446461        -1.535220         0.424069
 H         1.699761         0.860458        -2.076607
 H         1.637553         2.038007        -0.520603
 H         4.511667         1.355055        -2.131017
 H         5.221921         0.224671        -0.953300
 H         3.189643        -1.730843        -0.028101
 H         1.823870        -0.202127         2.254949
 H         1.150008         1.419843         1.506803
