19
Iteration:  1295
 C        -0.077934        -0.719561        -0.308002
 C         1.266377        -0.093692        -0.077043
 C         1.736532         1.168234        -0.901828
 C         3.180083         0.778730        -0.319935
 C         4.228300         0.499582        -1.411779
 O         3.404612        -0.528431        -1.863330
 C         2.742956        -0.601417        -0.519148
 O         3.058580         1.179717         1.018791
 C         1.852183         0.329798         1.362120
 H        -0.308083        -0.860933        -1.371831
 H        -0.208424        -1.750631         0.155806
 H        -0.958119        -0.224736         0.091614
 H         1.605897         1.316592        -2.014656
 H         1.476863         2.216780        -0.295184
 H         4.692854         1.153572        -2.152597
 H         5.228421         0.034417        -0.936950
 H         3.254493        -1.449474        -0.045741
 H         2.217873        -0.609862         1.848613
 H         1.196668         0.841343         2.168979
