19
Iteration:  1568charge 0 multiplicity 1
 C        -0.000509        -0.725984        -0.284531
 C         1.305297        -0.112588        -0.215461
 C         1.761178         1.239546        -0.850436
 C         3.129534         0.820848        -0.315117
 C         4.116335         0.569497        -1.475937
 O         3.409925        -0.628434        -1.849142
 C         2.761796        -0.579015        -0.549923
 O         3.185469         0.997141         1.164512
 C         1.763916         0.401429         1.280799
 H        -0.040035        -1.717445        -0.741756
 H        -0.500810        -1.001360         0.673202
 H        -0.876569        -0.083434        -0.644219
 H         1.884727         1.255740        -1.920919
 H         1.360572         2.137410        -0.351224
 H         4.131954         1.239908        -2.267110
 H         5.149529         0.565080        -0.909704
 H         3.137260        -1.386467         0.180351
 H         1.847082        -0.159255         2.191127
 H         1.090003         1.298820         1.500198
