19
Iteration:  1386
 C         0.002950        -0.769470        -0.291933
 C         1.310214        -0.024873        -0.177804
 C         1.719197         1.271637        -0.891028
 C         3.124800         0.756205        -0.332265
 C         4.199642         0.497273        -1.245792
 O         3.322206        -0.527418        -1.908847
 C         2.719096        -0.650412        -0.501740
 O         3.108516         1.162673         0.990419
 C         1.885643         0.295742         1.295025
 H         0.011153        -1.485773        -1.134735
 H        -0.018290        -1.397567         0.687967
 H        -0.818212        -0.025012        -0.177588
 H         1.630869         1.296197        -1.981214
 H         1.453060         2.181291        -0.356499
 H         4.742371         1.276908        -1.906757
 H         4.998665        -0.004563        -0.719866
 H         2.977102        -1.496155         0.113488
 H         2.164060        -0.548155         1.948721
 H         1.179314         0.952424         1.788995
