19
Iteration:  1016charge 0 multiplicity 1
 C        -0.048736        -0.672652        -0.208041
 C         1.350029        -0.173898        -0.152005
 C         1.756763         1.143622        -0.784788
 C         3.183008         0.816791        -0.300231
 C         4.183844         0.590948        -1.419588
 O         3.424519        -0.477119        -1.907175
 C         2.681820        -0.714033        -0.650280
 O         3.107548         1.061890         1.110142
 C         1.799722         0.379289         1.283149
 H        -0.104073        -1.603380         0.301027
 H        -0.656347         0.037517         0.213546
 H        -0.379083        -0.724723        -1.258954
 H         1.621300         1.052066        -1.904475
 H         1.326492         2.143814        -0.429456
 H         4.395716         1.510762        -2.013973
 H         5.169483         0.254748        -1.074237
 H         2.990875        -1.694170        -0.251446
 H         1.939564        -0.439075         2.054084
 H         1.063972         1.085315         1.727173
