19
Iteration:  1367
 C        -0.003632        -0.788613        -0.181608
 C         1.321182        -0.023936        -0.187993
 C         1.781878         1.309406        -0.868174
 C         3.132451         0.794942        -0.352326
 C         4.212847         0.552438        -1.386927
 O         3.452925        -0.589332        -1.892472
 C         2.641015        -0.661498        -0.622100
 O         3.078193         1.025979         1.109683
 C         1.786822         0.425147         1.345740
 H         0.005627        -1.588331        -0.992335
 H        -0.233587        -1.284016         0.792153
 H        -0.904010        -0.115617        -0.452158
 H         1.742049         1.312809        -1.946762
 H         1.366314         2.164347        -0.516299
 H         4.392548         1.322626        -2.196459
 H         5.188954         0.287152        -1.034258
 H         3.101728        -1.528843        -0.109164
 H         2.007861        -0.459981         1.947416
 H         1.119259         1.030060         1.902527
