19
Iteration:  4315
 C         0.062325        -0.887927        -0.278592
 C         1.370190         0.017212        -0.255588
 C         1.758782         1.357412        -0.924217
 C         3.159160         0.897218        -0.381344
 C         4.221006         0.439678        -1.299106
 O         3.321591        -0.696229        -1.746529
 C         2.689499        -0.591611        -0.472257
 O         3.051532         1.156081         1.011032
 C         1.831699         0.388813         1.296426
 H        -0.674316        -0.361623         0.288514
 H        -0.401649        -0.958804        -1.242864
 H         0.288154        -1.849930         0.214430
 H         1.920094         1.233430        -2.041458
 H         1.158355         2.262441        -0.674992
 H         4.379755         1.185295        -2.161818
 H         5.111465         0.130149        -0.859406
 H         2.815921        -1.362911         0.298154
 H         1.989015        -0.568706         1.717552
 H         1.085178         0.908719         1.836186
