19
Iteration:  2515
 C        -0.049440        -0.748511        -0.268173
 C         1.313661        -0.060878        -0.133997
 C         1.751092         1.122408        -0.950736
 C         3.194071         0.831083        -0.315333
 C         4.324062         0.447778        -1.352295
 O         3.356167        -0.558970        -1.791304
 C         2.745199        -0.631348        -0.461690
 O         3.011203         1.224015         0.958481
 C         1.806763         0.383707         1.331299
 H        -0.807831        -0.206844         0.368299
 H        -0.481589        -0.548365        -1.204905
 H         0.035966        -1.764001        -0.053098
 H         1.731773         1.011397        -2.011545
 H         1.194403         2.052690        -0.601985
 H         4.770959         1.100953        -2.201288
 H         5.214955        -0.121626        -1.021980
 H         2.962564        -1.572514         0.054418
 H         2.156626        -0.360578         1.953081
 H         1.071881         1.065325         1.686877
