19
Iteration:  4471
 C         0.048131        -0.779020        -0.311032
 C         1.318060        -0.098955        -0.082420
 C         1.781261         1.145836        -0.935462
 C         3.168742         0.764577        -0.332917
 C         4.248679         0.555549        -1.360373
 O         3.345463        -0.641515        -1.881384
 C         2.708429        -0.678728        -0.522866
 O         3.114030         1.138616         1.094905
 C         1.723434         0.570690         1.311539
 H        -0.856232        -0.219037         0.008881
 H        -0.114186        -1.085488        -1.367746
 H         0.064446        -1.720603         0.292080
 H         1.502603         0.963123        -2.016023
 H         1.299197         2.177464        -0.610892
 H         4.344184         1.441046        -2.041928
 H         5.216840         0.092059        -1.075152
 H         3.206509        -1.370650         0.228538
 H         1.717650         0.022842         2.233339
 H         1.063016         1.404362         1.565491
