19
Iteration:  4398charge 0 multiplicity 1
 C        -0.096235        -0.699324        -0.146311
 C         1.321482        -0.073523        -0.253393
 C         1.739178         1.197694        -0.966060
 C         3.187369         0.739906        -0.340455
 C         4.228137         0.619666        -1.399772
 O         3.531879        -0.668233        -1.771227
 C         2.725156        -0.613007        -0.501868
 O         3.062086         1.128121         1.043861
 C         1.753610         0.358246         1.244207
 H        -0.889423         0.102230        -0.068390
 H        -0.317694        -1.486204        -0.910833
 H        -0.251590        -1.304655         0.724487
 H         1.747076         1.146019        -1.994293
 H         1.485629         2.183006        -0.546656
 H         4.126322         1.315847        -2.174642
 H         5.306253         0.509123        -1.066034
 H         2.999602        -1.418687         0.220930
 H         1.822643        -0.418326         2.054953
 H         0.925572         1.075120         1.589290
