19
Iteration:  4646
 C         0.037795        -0.725039        -0.420224
 C         1.390701        -0.096995        -0.067004
 C         1.716213         1.161920        -0.886683
 C         3.101135         0.834044        -0.360547
 C         4.144915         0.445896        -1.340023
 O         3.310893        -0.600544        -1.764415
 C         2.707131        -0.737532        -0.453703
 O         3.147130         1.256115         0.993276
 C         1.841677         0.446073         1.312308
 H        -0.826931        -0.056461        -0.139048
 H         0.066263        -0.943963        -1.519587
 H        -0.035149        -1.713940         0.066336
 H         1.617560         1.111847        -1.907571
 H         1.411258         2.199963        -0.518445
 H         4.495016         1.023495        -2.197001
 H         5.036897         0.038210        -0.754940
 H         3.192677        -1.432811         0.227936
 H         1.967624        -0.497321         1.905499
 H         1.223385         1.266902         1.599566
