19
Iteration:  2537charge 0 multiplicity 1
 C        -0.016547        -0.745395        -0.162238
 C         1.331802        -0.046091        -0.130991
 C         1.751285         1.259520        -0.994347
 C         3.060946         0.834952        -0.403128
 C         4.280432         0.436830        -1.221606
 O         3.444441        -0.645766        -1.869328
 C         2.718174        -0.680134        -0.544247
 O         2.999063         1.202732         1.026810
 C         1.826592         0.377543         1.259637
 H        -0.798400         0.008586         0.250839
 H        -0.423708        -0.887513        -1.127714
 H         0.046292        -1.628876         0.384201
 H         1.647257         1.126297        -2.070414
 H         1.471979         2.311677        -0.675695
 H         4.619023         1.224415        -1.980654
 H         5.224732         0.112563        -0.770323
 H         3.161379        -1.416717         0.159335
 H         2.204311        -0.484651         1.689368
 H         1.069894         0.898185         1.810918
