19
Iteration:  4452charge 0 multiplicity 1
 C        -0.031176        -0.805781        -0.269930
 C         1.368527        -0.126692        -0.155573
 C         1.681992         1.164626        -0.952548
 C         3.132542         0.825251        -0.338271
 C         4.226862         0.465847        -1.291299
 O         3.344474        -0.505375        -1.791106
 C         2.762351        -0.685258        -0.458595
 O         3.117467         1.174696         0.973940
 C         1.851423         0.494021         1.263197
 H        -0.899525        -0.069022        -0.302976
 H        -0.220383        -1.214461        -1.308250
 H        -0.338414        -1.540168         0.444908
 H         1.858555         1.198857        -1.986239
 H         1.180276         2.157216        -0.655995
 H         4.633208         0.987062        -2.065071
 H         5.028568         0.062472        -0.574503
 H         3.046883        -1.707350         0.016043
 H         2.068749        -0.323149         1.981373
 H         1.097469         1.182751         1.790825
