19
Iteration:  3491charge 0 multiplicity 1
 C        -0.063496        -0.739176        -0.107656
 C         1.301959        -0.029685        -0.247002
 C         1.772355         1.283913        -1.001120
 C         3.137835         0.837671        -0.317447
 C         4.249671         0.598069        -1.367835
 O         3.489681        -0.728369        -1.766978
 C         2.766759        -0.640611        -0.505281
 O         3.105121         1.027847         1.026838
 C         1.683464         0.442692         1.199527
 H        -0.866932         0.000778         0.110249
 H        -0.396070        -1.377866        -0.904627
 H        -0.182191        -1.446366         0.712299
 H         1.902773         1.306692        -2.069684
 H         1.165498         2.115781        -0.600098
 H         4.238796         1.328142        -2.293172
 H         5.142183         0.209788        -0.949676
 H         3.031301        -1.531106         0.127225
 H         1.887430        -0.286618         1.978413
 H         1.139262         1.270645         1.720002
