19
Iteration:  4747charge 0 multiplicity 1
 C        -0.113616        -0.733581        -0.183512
 C         1.291330        -0.079654        -0.078352
 C         1.762927         1.164795        -0.979686
 C         3.191674         0.735093        -0.345615
 C         4.330139         0.561555        -1.355770
 O         3.415393        -0.627160        -1.878194
 C         2.764546        -0.672659        -0.525366
 O         3.058291         1.156389         1.053822
 C         1.762578         0.476157         1.269591
 H        -0.901197         0.096243        -0.069969
 H        -0.193733        -1.230347        -1.171416
 H        -0.410236        -1.477187         0.522199
 H         1.656899         0.947324        -2.138135
 H         1.301815         2.178898        -0.772648
 H         4.446124         1.366029        -2.044692
 H         5.272402         0.046090        -0.951222
 H         3.171475        -1.350732         0.278270
 H         2.018178        -0.211912         2.146897
 H         0.942359         1.167271         1.603859
