19
Iteration:  2632charge 0 multiplicity 1
 C         0.013917        -0.782858        -0.386495
 C         1.304490        -0.030025        -0.086714
 C         1.815405         1.208209        -0.881031
 C         3.135427         0.849327        -0.368605
 C         4.208750         0.486078        -1.373464
 O         3.303375        -0.630945        -1.772890
 C         2.708392        -0.656583        -0.460679
 O         3.083152         1.217888         0.994684
 C         1.812329         0.355185         1.339911
 H        -0.878261        -0.167567        -0.351218
 H        -0.125493        -1.143022        -1.429295
 H        -0.095122        -1.675039         0.347869
 H         1.699750         1.087189        -1.899649
 H         1.626384         2.215980        -0.617099
 H         4.532302         1.196727        -2.181646
 H         5.149335         0.083478        -0.969773
 H         3.244726        -1.358260         0.204378
 H         2.328321        -0.430990         1.993432
 H         1.096792         1.073682         1.792212
