19
Iteration:  2097
 C        -0.121194        -0.717434        -0.210794
 C         1.294739        -0.065202        -0.115181
 C         1.791116         1.147937        -0.951331
 C         3.139017         0.821935        -0.365319
 C         4.320353         0.528686        -1.304336
 O         3.442371        -0.637835        -1.890614
 C         2.722502        -0.678260        -0.552791
 O         2.994293         1.240798         1.053094
 C         1.828870         0.363537         1.307312
 H        -0.716570        -0.159782         0.584887
 H        -0.612789        -0.509381        -1.160624
 H         0.107011        -1.732451         0.005275
 H         1.807153         0.820600        -1.984128
 H         1.250064         2.108170        -0.824225
 H         4.549361         1.195015        -2.225993
 H         5.209962         0.108272        -0.717602
 H         3.200987        -1.426928         0.012550
 H         2.112677        -0.524437         1.999296
 H         1.152750         1.084043         1.847691
