19
Iteration:  2813charge 0 multiplicity 1
 C        -0.000487        -0.783217        -0.266622
 C         1.362349        -0.150168        -0.148963
 C         1.761232         1.116928        -0.967030
 C         3.188235         0.739654        -0.290464
 C         4.296279         0.499233        -1.366919
 O         3.338808        -0.436769        -1.863914
 C         2.736750        -0.695996        -0.458560
 O         3.026959         1.087164         1.024216
 C         1.737080         0.566850         1.340983
 H        -0.775356        -0.002110        -0.136281
 H        -0.005657        -1.319491        -1.221668
 H        -0.196241        -1.362804         0.609479
 H         1.777422         1.154817        -2.018900
 H         1.291802         1.966487        -0.460486
 H         4.297634         1.168621        -2.190890
 H         5.309552         0.166353        -1.260611
 H         3.181328        -1.594693        -0.037262
 H         1.809917        -0.186122         2.247331
 H         1.232083         1.505072         1.625546
