19
Iteration:  3401
 C         0.057839        -0.743391        -0.349947
 C         1.309889        -0.037239        -0.080865
 C         1.795867         1.239170        -0.973666
 C         3.166002         0.830550        -0.405616
 C         4.126321         0.430193        -1.446052
 O         3.398184        -0.721818        -1.789382
 C         2.742661        -0.604975        -0.433078
 O         3.073335         1.174470         1.107454
 C         1.745704         0.445278         1.314523
 H        -0.682638        -0.106723         0.224227
 H        -0.172866        -0.756222        -1.455926
 H         0.166755        -1.736810         0.111800
 H         1.471747         0.970505        -2.029257
 H         1.674630         2.196366        -0.566554
 H         4.244545         1.144285        -2.347629
 H         5.058277         0.166942        -0.914110
 H         3.265264        -1.222587         0.376844
 H         1.857475        -0.321781         2.059649
 H         0.994964         1.127750         1.780154
