19
Iteration:  1094charge 0 multiplicity 1
 C         0.001749        -0.751387        -0.229560
 C         1.339445        -0.068137        -0.087623
 C         1.840752         1.186032        -0.816206
 C         3.197621         0.740898        -0.295249
 C         4.217405         0.590115        -1.404192
 O         3.296151        -0.461555        -1.933689
 C         2.730465        -0.697665        -0.524069
 O         3.102541         1.020589         1.038136
 C         1.731819         0.427680         1.270387
 H         0.240497        -1.694726        -0.675756
 H        -0.497929        -0.894072         0.640905
 H        -0.595291        -0.252069        -0.958958
 H         1.745247         1.179446        -1.925440
 H         1.356456         2.137566        -0.373630
 H         4.266236         1.333068        -2.171477
 H         5.193564         0.234674        -0.957273
 H         3.093169        -1.606530        -0.041203
 H         1.679681        -0.385251         2.046466
 H         1.182539         1.294500         1.612417
