19
Iteration:  4268
 C        -0.118124        -0.710752        -0.221808
 C         1.338584        -0.179868        -0.137227
 C         1.757076         1.069055        -0.962378
 C         3.143322         0.713351        -0.272413
 C         4.228088         0.673712        -1.305372
 O         3.434212        -0.579344        -1.866806
 C         2.795029        -0.788935        -0.572624
 O         3.115886         1.143580         1.053326
 C         1.747673         0.581958         1.262903
 H        -0.789448         0.164031         0.018587
 H        -0.441099        -1.046340        -1.245826
 H        -0.224305        -1.395070         0.582621
 H         1.695283         1.142296        -1.999312
 H         1.479723         2.025742        -0.508769
 H         4.445846         1.385824        -2.117675
 H         5.198418         0.193451        -0.928076
 H         3.213131        -1.601736        -0.058461
 H         1.760146        -0.113350         2.135983
 H         0.920378         1.331555         1.472849
