19
Iteration:   488
 C         0.019183        -0.651415        -0.352004
 C         1.361841        -0.145353         0.001220
 C         1.653228         1.209479        -0.620739
 C         3.170468         0.828021        -0.279720
 C         4.185954         0.652836        -1.413956
 O         3.121334        -0.127239        -2.131155
 C         2.698433        -0.597086        -0.632189
 O         3.271735         0.854060         1.098351
 C         1.965888        -0.035880         1.395912
 H        -0.292814        -1.494007         0.198732
 H        -0.687320         0.155620        -0.250291
 H        -0.021183        -0.869476        -1.497105
 H         1.087863         1.229210        -1.603206
 H         1.231456         2.149099        -0.039746
 H         4.521012         1.561852        -2.054543
 H         5.056478         0.021255        -1.210705
 H         3.312829        -1.473520        -0.358044
 H         2.247821        -1.109345         1.799445
 H         1.348043         0.501752         2.185289
