19
Iteration:  2442charge 0 multiplicity 1
 C         0.006790        -0.768388        -0.277991
 C         1.313600        -0.053346        -0.202913
 C         1.767044         1.266354        -0.890495
 C         3.167793         0.865981        -0.379468
 C         4.213622         0.503395        -1.330345
 O         3.373070        -0.686728        -1.825963
 C         2.742547        -0.645608        -0.499197
 O         3.063434         1.126871         1.044518
 C         1.765200         0.451975         1.345925
 H        -0.835658        -0.047435        -0.006509
 H        -0.219615        -1.293136        -1.232313
 H         0.142106        -1.483092         0.632319
 H         1.754649         1.095831        -2.002444
 H         1.224096         2.273518        -0.726171
 H         4.367695         1.037638        -2.213507
 H         5.264536         0.249439        -1.035330
 H         3.151574        -1.514152         0.038956
 H         2.104199        -0.549710         1.798272
 H         1.095361         1.167137         1.894753
