19
Iteration:  1171
 C        -0.105439        -0.701534        -0.256060
 C         1.252068        -0.052822        -0.167818
 C         1.681154         1.287719        -0.829678
 C         3.114873         0.857406        -0.339794
 C         4.193405         0.526621        -1.430254
 O         3.509701        -0.642662        -1.911214
 C         2.738114        -0.659020        -0.530293
 O         3.078171         1.165732         1.098895
 C         1.911785         0.271945         1.314307
 H        -0.127146        -1.409587        -1.057788
 H        -0.240119        -1.327579         0.528101
 H        -0.965556        -0.043560        -0.240765
 H         1.782023         1.274183        -1.957821
 H         1.185753         2.328654        -0.493793
 H         4.607495         1.214190        -2.205535
 H         5.095758         0.082913        -0.785190
 H         2.971893        -1.427689         0.192289
 H         2.393876        -0.689299         1.703223
 H         1.213888         0.690519         2.016235
