19
Iteration:  4814charge 0 multiplicity 1
 C        -0.029467        -0.778556        -0.327773
 C         1.328051        -0.014013        -0.099023
 C         1.730371         1.245476        -0.853232
 C         3.141140         0.817275        -0.353347
 C         4.270714         0.570543        -1.472454
 O         3.437009        -0.728535        -1.771883
 C         2.699094        -0.605704        -0.460605
 O         3.118812         1.031390         1.010331
 C         1.707841         0.545690         1.352240
 H        -0.911915        -0.209098         0.027255
 H        -0.066638        -1.140903        -1.351109
 H         0.072328        -1.723161         0.210762
 H         1.604433         0.910393        -1.989368
 H         1.330454         2.271430        -0.711643
 H         4.328486         1.156514        -2.377536
 H         5.248974         0.200615        -1.080479
 H         3.181182        -1.359600         0.176833
 H         1.864160        -0.275264         2.133721
 H         1.038935         1.373636         1.552064
