19
Iteration:   128charge 0 multiplicity 1
 C         0.073579        -0.684467        -0.253915
 C         1.375819        -0.056053        -0.107244
 C         1.655937         1.455196        -0.337340
 C         3.106028         0.890516        -0.269712
 C         4.049619         0.893555        -1.417892
 O         3.151605        -0.082603        -2.130508
 C         2.619388        -0.435981        -0.830082
 O         3.331976         0.441433         1.044510
 C         2.075458        -0.323914         1.280875
 H        -0.174969        -1.010153        -1.272711
 H        -0.106581        -1.551518         0.429948
 H        -0.746812         0.108911         0.157978
 H         1.349353         1.749785        -1.340797
 H         1.369762         2.139363         0.498399
 H         4.138890         1.782853        -2.078055
 H         4.989257         0.265694        -1.107921
 H         2.935024        -1.493461        -0.489203
 H         2.288553        -1.376949         1.578834
 H         1.506661         0.200308         2.040863
