19
Iteration:  4955charge 0 multiplicity 1
 C         0.064215        -0.741723        -0.306188
 C         1.405084        -0.113977        -0.197130
 C         1.841470         1.169969        -0.915814
 C         3.196119         0.684997        -0.263061
 C         4.105994         0.531704        -1.484913
 O         3.329335        -0.534529        -1.808517
 C         2.757210        -0.737850        -0.379141
 O         3.056793         1.131110         1.104994
 C         1.702946         0.568595         1.239546
 H        -0.721188         0.069337         0.027205
 H        -0.128425        -1.272486        -1.256812
 H        -0.019891        -1.552975         0.471433
 H         1.722232         1.183596        -2.039341
 H         1.571318         2.111042        -0.558341
 H         4.032681         1.212312        -2.285671
 H         5.178057         0.177523        -1.211960
 H         3.330369        -1.507880         0.065000
 H         1.614965        -0.320130         1.979278
 H         1.119258         1.434592         1.580891
