19
Iteration:  2248
 C        -0.092208        -0.689026        -0.176211
 C         1.350107        -0.043288        -0.200701
 C         1.810615         1.173651        -0.985648
 C         3.085579         0.804706        -0.358043
 C         4.164992         0.593388        -1.375336
 O         3.522490        -0.655664        -1.829570
 C         2.724866        -0.689484        -0.553526
 O         3.089213         1.031660         1.101207
 C         1.763802         0.464059         1.273912
 H        -0.826616        -0.012743         0.108420
 H        -0.281825        -1.478239        -0.898585
 H        -0.002819        -1.171767         0.823503
 H         1.695254         1.144333        -2.090180
 H         1.259573         2.128294        -0.605438
 H         4.185230         1.434605        -2.167543
 H         5.159468         0.495350        -0.936371
 H         3.183271        -1.468529         0.114521
 H         1.784470        -0.282853         2.002824
 H         1.123890         1.241556         1.635269
