19
Iteration:   390
 C        -0.201202        -0.653527        -0.259080
 C         1.335501        -0.147222        -0.069425
 C         1.726816         1.244358        -0.575548
 C         3.200032         0.732428        -0.308319
 C         4.148661         0.799871        -1.406473
 O         3.194151        -0.092336        -2.100874
 C         2.745862        -0.653705        -0.794800
 O         3.259198         0.749910         1.132924
 C         2.051974         0.010973         1.371442
 H        -0.861402         0.078769        -0.659509
 H        -0.239935        -1.491861        -0.950171
 H        -0.628663        -1.053084         0.730415
 H         1.566642         1.482802        -1.664498
 H         1.344976         2.042012         0.221418
 H         4.213928         1.762580        -1.854833
 H         5.092146         0.371708        -1.292974
 H         3.205566        -1.664411        -0.688492
 H         2.372333        -1.000778         1.833079
 H         1.345985         0.379081         2.142851
