19
Iteration:  1203charge 0 multiplicity 1
 C         0.013739        -0.645464        -0.241574
 C         1.346771        -0.123572        -0.145315
 C         1.698474         1.159752        -0.943691
 C         3.163847         0.710948        -0.297494
 C         4.269492         0.599481        -1.398182
 O         3.365336        -0.484373        -1.877553
 C         2.734025        -0.703284        -0.459428
 O         3.033518         1.047619         1.036940
 C         1.819027         0.416711         1.297308
 H        -0.422633        -0.725423        -1.221143
 H         0.017080        -1.608216         0.150919
 H        -0.674133        -0.180571         0.426058
 H         1.705432         1.130919        -2.046757
 H         1.179918         2.105508        -0.548940
 H         4.502842         1.442333        -2.098248
 H         5.237882         0.192779        -1.112656
 H         3.119788        -1.579154         0.127435
 H         2.019877        -0.410568         2.052745
 H         1.140942         1.066601         1.808375
