19
Iteration:   579
 C        -0.049926        -0.716631        -0.208452
 C         1.370295        -0.173212        -0.108895
 C         1.667165         1.251763        -0.633872
 C         3.152351         0.810366        -0.302280
 C         4.247607         0.645488        -1.321437
 O         3.196834        -0.166659        -2.052326
 C         2.675748        -0.629011        -0.789011
 O         3.222360         0.882653         1.094574
 C         1.943052         0.077226         1.294560
 H        -0.298506        -0.960400        -1.244275
 H        -0.137550        -1.546168         0.472263
 H        -0.666349         0.105062         0.095121
 H         1.423601         1.372199        -1.722830
 H         1.209185         2.084773         0.027732
 H         4.605630         1.473103        -1.857513
 H         5.093795        -0.014550        -1.125893
 H         3.250702        -1.573736        -0.648979
 H         2.240416        -0.772208         2.017712
 H         1.248917         0.612047         1.965946
