19
Iteration:   600charge 0 multiplicity 1
 C        -0.039171        -0.710419        -0.261407
 C         1.350388        -0.132178        -0.082170
 C         1.741429         1.214731        -0.651234
 C         3.133126         0.738993        -0.291454
 C         4.147370         0.666176        -1.387190
 O         3.258245        -0.182546        -2.170699
 C         2.641498        -0.669567        -0.710796
 O         3.143664         0.956518         1.137218
 C         2.030323         0.094637         1.445191
 H        -0.328730        -0.217070        -1.164467
 H        -0.079325        -1.760788        -0.400993
 H        -0.775892        -0.275550         0.415654
 H         1.536874         1.262557        -1.757758
 H         1.458558         2.190861        -0.084639
 H         4.617953         1.429333        -2.006106
 H         5.010160         0.042768        -0.975493
 H         3.117206        -1.647550        -0.535450
 H         2.364338        -0.898253         1.951901
 H         1.338922         0.491556         2.185734
