19
Iteration:  1979
 C         0.023679        -0.754667        -0.264872
 C         1.297095         0.013696        -0.155089
 C         1.712188         1.214776        -0.904564
 C         3.183319         0.855236        -0.312117
 C         4.287135         0.465664        -1.427916
 O         3.405451        -0.665539        -1.813996
 C         2.696401        -0.595355        -0.531768
 O         3.005759         1.154443         1.023095
 C         1.796165         0.353323         1.345574
 H        -0.934452        -0.020663        -0.260828
 H        -0.020605        -1.299696        -1.203487
 H        -0.149343        -1.472743         0.521997
 H         1.606369         1.134892        -2.019663
 H         1.386981         2.277733        -0.449997
 H         4.484969         1.202244        -2.220124
 H         5.317003         0.068466        -0.834673
 H         3.137015        -1.456839         0.105569
 H         2.092642        -0.546559         1.875480
 H         1.298876         1.081824         1.977711
