19
Iteration:  1931
 C        -0.121266        -0.678840        -0.208669
 C         1.315606        -0.093096        -0.137066
 C         1.699932         1.204038        -0.934448
 C         3.147780         0.738873        -0.320476
 C         4.290721         0.481704        -1.415474
 O         3.512146        -0.581793        -1.827709
 C         2.778948        -0.692973        -0.515414
 O         3.073639         1.133299         1.051398
 C         1.739818         0.482759         1.268031
 H        -0.695753        -0.387713         0.731809
 H        -0.727854        -0.518697        -1.180125
 H        -0.090401        -1.817997        -0.083753
 H         1.671817         1.026568        -1.976302
 H         1.240320         2.032370        -0.604691
 H         4.377428         1.406785        -2.074752
 H         5.372248         0.224229        -1.041463
 H         3.196046        -1.538893         0.046483
 H         1.993845        -0.268998         2.077264
 H         0.831843         1.130541         1.518034
