19
Iteration:  4469charge 0 multiplicity 1
 C         0.030249        -0.781832        -0.313658
 C         1.316920        -0.096036        -0.098777
 C         1.769591         1.150441        -0.936018
 C         3.161261         0.773211        -0.327018
 C         4.256307         0.556177        -1.345208
 O         3.336341        -0.639911        -1.881694
 C         2.718165        -0.688583        -0.514390
 O         3.123259         1.145138         1.087647
 C         1.733820         0.568289         1.316330
 H        -0.802098        -0.177949         0.013834
 H        -0.055338        -1.114799        -1.344961
 H         0.053208        -1.731164         0.296573
 H         1.493127         0.933950        -2.019538
 H         1.310355         2.094767        -0.608685
 H         4.400771         1.465755        -2.071707
 H         5.173696         0.088474        -1.039174
 H         3.190908        -1.384860         0.163775
 H         1.722939        -0.021064         2.237503
 H         1.078977         1.402554         1.532820
