19
Iteration:   689charge 0 multiplicity 1
 C        -0.060874        -0.709004        -0.240403
 C         1.314302        -0.105988        -0.125202
 C         1.730103         1.249684        -0.809642
 C         3.176695         0.747571        -0.260251
 C         4.179374         0.644341        -1.326399
 O         3.228409        -0.248513        -2.086272
 C         2.715687        -0.665321        -0.672592
 O         3.180907         0.940235         1.124976
 C         1.961302         0.128717         1.385557
 H        -0.707415        -0.496036         0.607021
 H        -0.608451        -0.248593        -1.066675
 H        -0.117629        -1.780418        -0.319952
 H         1.623172         1.192990        -1.914654
 H         1.338649         2.225128        -0.360059
 H         4.554598         1.478155        -1.887729
 H         5.091867         0.037677        -0.934582
 H         3.249716        -1.564477        -0.365111
 H         2.276644        -0.741916         2.046714
 H         1.302798         0.776763         1.986853
