19
Iteration:  2714
 C        -0.027429        -0.659818        -0.162919
 C         1.355521        -0.068060        -0.127005
 C         1.736971         1.035706        -0.975645
 C         3.196077         0.749801        -0.342625
 C         4.341920         0.588729        -1.330212
 O         3.393034        -0.535059        -1.847181
 C         2.713077        -0.695181        -0.457427
 O         3.032900         1.137290         1.009202
 C         1.708506         0.436870         1.221832
 H        -0.672191        -0.060529         0.558801
 H        -0.357258        -0.539978        -1.210909
 H        -0.077668        -1.716457         0.006230
 H         1.776406         0.780292        -2.081781
 H         1.351024         2.011394        -0.580918
 H         4.422770         1.279699        -2.167606
 H         5.332947         0.363903        -0.850032
 H         3.055703        -1.677762        -0.126582
 H         1.852180        -0.384817         2.038234
 H         0.960286         1.075723         1.739270
