19
Iteration:    50charge 0 multiplicity 1
 C        -0.057231        -0.725608        -0.235317
 C         1.316874        -0.149922        -0.120904
 C         1.654666         1.379635        -0.330460
 C         3.165946         0.785066        -0.226325
 C         4.102080         0.892528        -1.503210
 O         3.147694         0.101675        -2.271798
 C         2.606164        -0.425050        -0.849016
 O         3.422100         0.421541         1.206738
 C         2.057763        -0.280988         1.340996
 H        -0.396745        -1.404414         0.594676
 H        -0.730747         0.126147         0.005917
 H        -0.368120        -1.085773        -1.267071
 H         1.359325         1.812107        -1.327157
 H         1.237341         2.083854         0.445367
 H         4.294108         1.913249        -1.990454
 H         5.148146         0.458642        -1.471622
 H         3.159761        -1.380598        -0.703624
 H         2.239484        -1.348958         1.463614
 H         1.543713         0.167437         2.203376
