19
Iteration:  1992charge 0 multiplicity 1
 C        -0.034223        -0.787146        -0.295503
 C         1.347047        -0.100634        -0.138187
 C         1.781644         1.221544        -0.875140
 C         3.178408         0.781896        -0.351489
 C         4.279782         0.477154        -1.433818
 O         3.336732        -0.598062        -1.853720
 C         2.726989        -0.630423        -0.485363
 O         3.055438         1.198926         1.124598
 C         1.784867         0.450686         1.288480
 H        -0.845531        -0.007897        -0.410578
 H         0.037659        -1.484245        -1.126998
 H        -0.245213        -1.341450         0.633148
 H         1.706373         1.199570        -2.028175
 H         1.219088         2.246413        -0.454184
 H         4.611660         1.202432        -2.301808
 H         5.273910        -0.038468        -1.074207
 H         3.084811        -1.548655         0.115966
 H         1.977182        -0.342401         1.997858
 H         0.885084         0.969606         1.640165
