19
Iteration:  1836charge 0 multiplicity 1
 C         0.029102        -0.690314        -0.306878
 C         1.316600        -0.051652        -0.155574
 C         1.676126         1.215690        -0.919141
 C         3.190598         0.845039        -0.380862
 C         4.283187         0.485725        -1.375344
 O         3.412846        -0.678758        -1.773260
 C         2.664243        -0.663375        -0.461322
 O         3.057046         1.164625         1.038010
 C         1.798260         0.438911         1.296590
 H        -0.604917        -0.582600         0.587674
 H        -0.426167        -0.494009        -1.202003
 H         0.167960        -1.724010        -0.348826
 H         1.481800         1.071669        -2.009820
 H         1.213096         2.222465        -0.508582
 H         4.521424         1.076854        -2.240256
 H         5.193040         0.005384        -1.011819
 H         2.980908        -1.392795         0.285086
 H         2.159287        -0.432416         1.833718
 H         1.052734         0.940427         1.840463
