19
Iteration:   839
 C        -0.049123        -0.764253        -0.236555
 C         1.308049        -0.019994        -0.116949
 C         1.720810         1.342027        -0.818155
 C         3.084164         0.842847        -0.317203
 C         4.214073         0.591374        -1.303085
 O         3.331971        -0.473329        -1.958392
 C         2.676947        -0.550144        -0.654168
 O         3.232979         0.934490         1.094662
 C         1.862432         0.181431         1.290398
 H        -0.465928        -0.814467        -1.273859
 H         0.055555        -1.809231         0.050504
 H        -0.834107        -0.376184         0.585747
 H         1.729432         1.270049        -1.929126
 H         1.368495         2.357923        -0.465142
 H         4.465199         1.294064        -2.184632
 H         5.093544         0.163723        -0.851199
 H         3.169081        -1.394335        -0.063875
 H         2.137848        -0.863572         1.640692
 H         1.188509         0.739600         2.006471
