19
Iteration:  1309charge 0 multiplicity 1
 C        -0.040991        -0.656962        -0.284646
 C         1.358751        -0.087221        -0.097273
 C         1.709319         1.163928        -0.817134
 C         3.164103         0.755134        -0.325424
 C         4.284549         0.581755        -1.361827
 O         3.381042        -0.537708        -1.896522
 C         2.716197        -0.740185        -0.540811
 O         3.089591         1.180944         1.020701
 C         1.785530         0.320153         1.311112
 H        -0.048441        -1.050661        -1.325569
 H        -0.231313        -1.534277         0.482965
 H        -0.729077         0.227648        -0.107540
 H         1.573102         0.884241        -1.839739
 H         1.201847         2.064995        -0.532013
 H         4.207007         1.454887        -2.115429
 H         5.280701         0.208309        -1.056301
 H         3.054393        -1.633823        -0.011537
 H         2.170117        -0.466277         1.951540
 H         1.018589         0.938550         1.787884
