19
Iteration:  3182
 C        -0.115140        -0.684005        -0.135781
 C         1.243530        -0.031533        -0.173672
 C         1.658712         1.179461        -0.928277
 C         3.091790         0.813019        -0.422255
 C         4.285243         0.555784        -1.300665
 O         3.518564        -0.670641        -1.734884
 C         2.780127        -0.650177        -0.591075
 O         3.121260         1.107027         0.940049
 C         1.790400         0.384835         1.250940
 H        -0.839145         0.113399        -0.144932
 H        -0.037120        -1.350971        -0.983854
 H        -0.243968        -1.352248         0.694007
 H         1.693860         1.146143        -2.022474
 H         1.151444         2.128840        -0.471016
 H         4.608868         1.242865        -2.142829
 H         5.135762         0.286701        -0.728992
 H         3.108787        -1.307012         0.244840
 H         1.962471        -0.481265         1.961243
 H         1.163515         1.200543         1.744646
