19
Iteration:  3381charge 0 multiplicity 1
 C        -0.038662        -0.802245        -0.267885
 C         1.280502         0.019525        -0.183908
 C         1.700041         1.314233        -0.868405
 C         3.129794         0.806694        -0.357031
 C         4.253248         0.531455        -1.430583
 O         3.469350        -0.757413        -1.717442
 C         2.734555        -0.663297        -0.502807
 O         3.139846         1.052996         1.003460
 C         1.750692         0.528023         1.292269
 H        -0.868864        -0.107645        -0.139967
 H        -0.074518        -1.084465        -1.290132
 H         0.043654        -1.570196         0.464025
 H         1.795251         1.219287        -2.014034
 H         1.077159         2.096402        -0.466345
 H         4.203843         1.224097        -2.425992
 H         5.307198         0.318760        -1.135444
 H         2.914524        -1.453393         0.276471
 H         1.839617        -0.138885         2.188739
 H         1.053036         1.368010         1.619223
