19
Iteration:   205charge 0 multiplicity 1
 C        -0.034066        -0.681067        -0.189706
 C         1.365610        -0.141152        -0.141229
 C         1.747940         1.371204        -0.435338
 C         3.206414         0.808504        -0.231792
 C         4.081794         0.902888        -1.499733
 O         3.161290        -0.022325        -2.148736
 C         2.609841        -0.527359        -0.869342
 O         3.356076         0.439339         1.186813
 C         1.935520        -0.112934         1.302174
 H        -0.636307        -0.128987         0.517364
 H        -0.467023        -0.869151        -1.193544
 H         0.037263        -1.795576         0.215740
 H         1.627744         1.583950        -1.497252
 H         1.292076         2.163330         0.218752
 H         4.179713         1.835306        -2.096635
 H         5.184412         0.468064        -1.368174
 H         3.010793        -1.535962        -0.564909
 H         1.985963        -0.998681         1.930623
 H         1.307935         0.584221         1.830868
