19
Iteration:   567charge 0 multiplicity 1
 C        -0.026727        -0.746057        -0.156298
 C         1.333353        -0.099117        -0.220677
 C         1.663197         1.316279        -0.693205
 C         3.161539         0.744416        -0.291773
 C         4.214173         0.718678        -1.413640
 O         3.240619        -0.189418        -2.116930
 C         2.733262        -0.601754        -0.673346
 O         3.221203         0.766779         1.132872
 C         1.901819         0.094258         1.385448
 H        -0.321167        -1.327878        -1.014748
 H        -0.233093        -1.370382         0.685958
 H        -0.762997         0.061734        -0.076881
 H         1.458302         1.611816        -1.768362
 H         1.339075         2.162979         0.044209
 H         4.510517         1.573818        -2.019734
 H         5.050209         0.120235        -1.000704
 H         3.193143        -1.478034        -0.166886
 H         2.113745        -1.002751         1.631449
 H         1.251416         0.714075         2.012304
