19
Iteration:  2314
 C         0.059642        -0.741691        -0.353872
 C         1.353778        -0.073177        -0.060038
 C         1.724573         1.169739        -0.952619
 C         3.206764         0.842601        -0.367678
 C         4.235328         0.419234        -1.259850
 O         3.262307        -0.563224        -1.821140
 C         2.725599        -0.691417        -0.447108
 O         3.080195         1.220849         0.957915
 C         1.822672         0.424531         1.337093
 H        -0.813632        -0.471418         0.276498
 H        -0.151902        -0.527650        -1.471176
 H         0.209325        -1.886386        -0.275187
 H         1.349779         1.072732        -2.042688
 H         1.297843         2.220594        -0.596304
 H         4.333749         1.156859        -2.173652
 H         5.151517        -0.054241        -0.821423
 H         3.242924        -1.512014         0.168454
 H         2.091163        -0.313148         2.062854
 H         1.021908         1.022351         1.764801
