19
Iteration:  3955
 C        -0.020753        -0.640291        -0.182905
 C         1.362488        -0.088923        -0.160906
 C         1.803281         1.057268        -0.981761
 C         3.227592         0.778777        -0.288428
 C         4.251664         0.562755        -1.376012
 O         3.410115        -0.604564        -1.847282
 C         2.685157        -0.676720        -0.486502
 O         2.942213         1.213611         1.061544
 C         1.783995         0.401701         1.274159
 H        -0.751292        -0.128641         0.452091
 H        -0.363025        -0.633132        -1.267356
 H        -0.068068        -1.750004        -0.010739
 H         1.852561         0.994008        -2.031605
 H         1.386826         2.030666        -0.825245
 H         4.498656         1.439149        -2.103793
 H         5.261219         0.082372        -1.162636
 H         3.128888        -1.525070         0.077975
 H         2.004465        -0.561455         1.898661
 H         1.042738         0.997690         1.805992
