19
Iteration:  4809charge 0 multiplicity 1
 C        -0.033478        -0.780280        -0.362688
 C         1.289460         0.025940        -0.068262
 C         1.735060         1.225415        -0.854692
 C         3.163668         0.842251        -0.370184
 C         4.254488         0.518298        -1.486976
 O         3.440132        -0.697872        -1.784980
 C         2.738826        -0.630090        -0.438535
 O         3.103770         1.056801         0.992511
 C         1.704601         0.514853         1.389328
 H        -0.911077        -0.195373        -0.044947
 H        -0.099166        -1.215931        -1.395255
 H         0.097968        -1.697208         0.259047
 H         1.703747         0.980604        -1.831250
 H         1.287390         2.192040        -0.652691
 H         4.431847         1.110685        -2.435693
 H         5.207737         0.188605        -1.089146
 H         3.127826        -1.319682         0.335478
 H         1.934280        -0.329674         1.989718
 H         1.040864         1.366894         1.681617
