19
Iteration:  2884charge 0 multiplicity 1
 C        -0.062539        -0.696063        -0.212609
 C         1.356735        -0.061338        -0.139397
 C         1.776069         1.241634        -0.928513
 C         3.142572         0.839359        -0.335707
 C         4.159692         0.534625        -1.375099
 O         3.502005        -0.699954        -1.782636
 C         2.777306        -0.664622        -0.516080
 O         3.016855         1.163179         0.984785
 C         1.765733         0.360577         1.269237
 H        -0.762470        -0.433459         0.584844
 H        -0.340749        -0.460628        -1.240074
 H         0.045667        -1.791223         0.016173
 H         1.768322         1.145059        -2.104101
 H         1.137439         2.142431        -0.538458
 H         4.149403         1.419461        -2.099821
 H         5.190976         0.311933        -1.082167
 H         3.142219        -1.394365         0.257994
 H         2.148616        -0.491074         1.834893
 H         0.989448         0.910251         1.823078
