19
Iteration:  2266charge 0 multiplicity 1
 C         0.011451        -0.757952        -0.092606
 C         1.289985        -0.067587        -0.196643
 C         1.765757         1.294951        -0.955721
 C         3.140663         0.754014        -0.323624
 C         4.270483         0.598045        -1.403200
 O         3.463758        -0.634106        -1.767322
 C         2.701686        -0.659463        -0.515026
 O         3.053011         1.052046         0.991027
 C         1.743219         0.442179         1.225751
 H        -0.808334         0.028303         0.109844
 H        -0.257558        -1.047943        -1.145776
 H         0.050193        -1.653182         0.611389
 H         1.759101         1.210106        -2.006938
 H         1.480156         2.245129        -0.652224
 H         4.282989         1.324560        -2.212673
 H         5.265164         0.203837        -0.979346
 H         2.903585        -1.523160         0.150986
 H         1.777461        -0.483008         1.944805
 H         0.957833         1.176600         1.563012
