19
Iteration:  4453charge 0 multiplicity 1
 C        -0.033188        -0.810510        -0.270726
 C         1.374664        -0.117609        -0.159627
 C         1.675903         1.165190        -0.950816
 C         3.132208         0.820282        -0.332803
 C         4.227458         0.476781        -1.292012
 O         3.339250        -0.512942        -1.796900
 C         2.769212        -0.689121        -0.451810
 O         3.120758         1.170524         0.974575
 C         1.846169         0.502642         1.270782
 H        -0.895054        -0.076502        -0.300356
 H        -0.208998        -1.184122        -1.315466
 H        -0.328416        -1.552011         0.430789
 H         1.874852         1.188921        -1.951207
 H         1.207618         2.116214        -0.668828
 H         4.643520         0.977226        -2.082822
 H         5.019840         0.078057        -0.580334
 H         3.039290        -1.695459        -0.035523
 H         2.053449        -0.336286         1.986596
 H         1.081130         1.218146         1.748424
