19
Iteration:  2091
 C        -0.074948        -0.662675        -0.201067
 C         1.336825        -0.074511        -0.165086
 C         1.722202         1.157196        -0.940858
 C         3.115264         0.874239        -0.349864
 C         4.313953         0.444844        -1.330312
 O         3.476924        -0.618774        -1.844727
 C         2.698965        -0.706375        -0.577131
 O         2.991465         1.221283         1.031535
 C         1.812425         0.384126         1.332508
 H        -0.645091        -0.213640         0.610024
 H        -0.467113        -0.638692        -1.232239
 H         0.052788        -1.756642         0.057830
 H         1.647587         0.908877        -2.018656
 H         1.226764         2.174923        -0.766329
 H         4.575122         1.221014        -2.053429
 H         5.299926         0.198443        -0.944012
 H         3.164079        -1.461294         0.150226
 H         2.221491        -0.484677         1.805485
 H         1.085817         0.835560         2.011196
