19
Iteration:   885charge 0 multiplicity 1
 C        -0.068584        -0.715800        -0.191926
 C         1.365481        -0.084750        -0.181716
 C         1.885964         1.206979        -0.769434
 C         3.170310         0.749610        -0.227559
 C         4.085593         0.676558        -1.452111
 O         3.355336        -0.432313        -1.992413
 C         2.801229        -0.704233        -0.610388
 O         3.156684         0.960436         1.106176
 C         1.699854         0.292066         1.298315
 H        -0.723967         0.146501        -0.522809
 H        -0.325888        -1.468367        -1.032335
 H        -0.480980        -1.146940         0.847589
 H         1.805175         1.203191        -1.890821
 H         1.418282         2.132396        -0.258258
 H         4.203277         1.594393        -1.948087
 H         5.085479         0.233159        -1.113622
 H         3.252352        -1.591273        -0.194928
 H         1.854158        -0.383123         2.138969
 H         1.200287         1.201987         1.598117
