19
Iteration:  2954charge 0 multiplicity 1
 C         0.069315        -0.845345        -0.200080
 C         1.329865        -0.033534        -0.184422
 C         1.775879         1.349741        -0.940245
 C         3.220487         0.860837        -0.283110
 C         4.254922         0.487943        -1.433212
 O         3.346451        -0.688826        -1.815164
 C         2.721351        -0.591623        -0.575423
 O         2.986915         1.116693         1.103081
 C         1.761919         0.446642         1.312011
 H        -0.991307        -0.398732        -0.143133
 H         0.177842        -1.396231        -1.160124
 H        -0.063015        -1.482530         0.670149
 H         1.654951         1.222130        -1.954797
 H         1.367612         2.256417        -0.573513
 H         4.500021         1.181874        -2.364587
 H         5.230622         0.016198        -1.079018
 H         2.960917        -1.524054        -0.061455
 H         2.039825        -0.410234         1.879862
 H         0.936093         1.019071         1.667754
