19
Iteration:   815charge 0 multiplicity 1
 C         0.024015        -0.709446        -0.284672
 C         1.348203        -0.082462        -0.156846
 C         1.700806         1.289422        -0.744462
 C         3.151161         0.772230        -0.284301
 C         4.241345         0.564790        -1.382142
 O         3.252298        -0.404733        -1.976631
 C         2.679897        -0.601345        -0.629895
 O         3.073241         1.039991         1.081577
 C         1.970908         0.152683         1.376425
 H        -0.001494        -1.321836        -1.201695
 H        -0.258151        -1.371423         0.522254
 H        -0.811507         0.069353        -0.293653
 H         1.692729         1.490386        -1.808138
 H         1.395196         2.156341        -0.186146
 H         4.578220         1.335622        -2.203387
 H         5.073791         0.032323        -1.007118
 H         2.997145        -1.641632        -0.266563
 H         2.270270        -0.862118         1.845612
 H         1.208983         0.746123         2.017920
