19
Iteration:  4479
 C         0.076796        -0.794896        -0.286144
 C         1.367589        -0.042530        -0.025865
 C         1.798731         1.186971        -0.900373
 C         3.195223         0.719102        -0.345576
 C         4.192815         0.499851        -1.460027
 O         3.414960        -0.627673        -1.848313
 C         2.703319        -0.627282        -0.484477
 O         3.030040         1.071871         1.092140
 C         1.666250         0.599003         1.301926
 H        -0.876010        -0.422161         0.035457
 H        -0.210987        -0.833637        -1.321243
 H         0.065469        -1.806566         0.214490
 H         1.875198         1.110590        -2.047568
 H         1.567212         2.186774        -0.717110
 H         4.090999         1.357693        -2.305895
 H         5.230439         0.319150        -1.282209
 H         3.139031        -1.377200         0.098702
 H         1.796479        -0.103699         2.177253
 H         0.948755         1.395727         1.490485
