19
Iteration:  2418charge 0 multiplicity 1
 C        -0.072839        -0.682515        -0.189047
 C         1.287885        -0.144108        -0.065496
 C         1.695931         1.127292        -0.978989
 C         3.183397         0.818698        -0.393839
 C         4.307104         0.472118        -1.247913
 O         3.389952        -0.532869        -1.915616
 C         2.730368        -0.688657        -0.470355
 O         3.009566         1.230928         1.002084
 C         1.860069         0.370683         1.283294
 H        -0.930497         0.116511        -0.337321
 H         0.065856        -1.315659        -1.044228
 H        -0.218081        -1.293243         0.682229
 H         1.721049         1.187627        -2.060914
 H         1.472454         2.283080        -0.599019
 H         4.756947         1.142483        -1.971086
 H         5.184404        -0.076190        -0.826056
 H         3.122594        -1.658855        -0.240018
 H         2.137662        -0.490903         1.900315
 H         1.141087         1.080320         1.689564
