19
Iteration:   330
 C        -0.051571        -0.834183        -0.275243
 C         1.304361        -0.063967        -0.083639
 C         1.753435         1.436456        -0.449590
 C         3.170767         0.840336        -0.288171
 C         4.111747         0.791666        -1.468533
 O         3.220415        -0.206612        -2.085255
 C         2.608602        -0.455603        -0.754906
 O         3.398243         0.558116         1.061511
 C         1.888733        -0.028991         1.365043
 H        -0.200931        -1.193646        -1.326720
 H        -0.150672        -1.563415         0.527963
 H        -0.823476        -0.136534        -0.156326
 H         1.610446         1.775665        -1.453255
 H         1.372957         2.153470         0.131057
 H         4.105966         1.788661        -2.011087
 H         5.198416         0.436372        -1.290946
 H         3.054304        -1.385153        -0.441948
 H         1.998033        -1.015869         1.775832
 H         1.262757         0.704792         1.909686
