19
Iteration:  2622
 C        -0.014983        -0.742675        -0.395880
 C         1.353310        -0.093726        -0.082463
 C         1.788030         1.226762        -0.904880
 C         3.187959         0.746601        -0.316288
 C         4.229470         0.481924        -1.354864
 O         3.285778        -0.592723        -1.803064
 C         2.769015        -0.643524        -0.444074
 O         3.065798         1.241637         0.977989
 C         1.809809         0.399779         1.329665
 H        -0.862354        -0.043014        -0.297682
 H         0.180655        -1.282042        -1.334018
 H        -0.256978        -1.556508         0.386114
 H         1.594371         1.005398        -1.895139
 H         1.416052         2.159814        -0.598972
 H         4.167866         1.171682        -2.258364
 H         5.198532         0.148023        -1.045624
 H         3.139770        -1.518704         0.121234
 H         2.021480        -0.536452         2.046388
 H         1.057729         0.996053         1.933744
