19
Iteration:  2935charge 0 multiplicity 1
 C         0.105663        -0.857487        -0.299600
 C         1.310306        -0.042019        -0.135253
 C         1.766597         1.174223        -0.907641
 C         3.154418         0.753685        -0.351450
 C         4.206435         0.475030        -1.373833
 O         3.316733        -0.529222        -1.890638
 C         2.719367        -0.685191        -0.460233
 O         3.115784         1.131138         1.105198
 C         1.716203         0.539562         1.282547
 H        -0.675883        -0.158730         0.048127
 H        -0.040384        -1.130437        -1.341909
 H         0.182889        -1.603189         0.547883
 H         1.698167         1.188992        -1.993275
 H         1.413993         2.174748        -0.653583
 H         4.388503         1.242309        -2.069716
 H         5.152476         0.110454        -0.890606
 H         3.167337        -1.485916         0.138438
 H         1.660031        -0.300064         2.088502
 H         1.136597         1.458685         1.468425
