19
Iteration:  1207charge 0 multiplicity 1
 C        -0.004627        -0.670003        -0.249968
 C         1.365176        -0.121171        -0.129501
 C         1.705272         1.157728        -0.939202
 C         3.166204         0.703982        -0.294567
 C         4.245642         0.598179        -1.417082
 O         3.370390        -0.469114        -1.902968
 C         2.730000        -0.752900        -0.451016
 O         3.058971         1.053904         1.099160
 C         1.788121         0.462200         1.254201
 H        -0.549818        -0.563429        -1.219776
 H         0.270921        -1.697891         0.152715
 H        -0.679168        -0.173807         0.481828
 H         1.677343         1.078826        -2.058530
 H         1.201305         2.128326        -0.501201
 H         4.438797         1.366424        -2.131666
 H         5.308562         0.164276        -1.006997
 H         3.259397        -1.620277        -0.042554
 H         1.949848        -0.342047         2.006094
 H         1.056446         1.187444         1.735508
