19
Iteration:  2197charge 0 multiplicity 1
 C         0.005859        -0.750561        -0.294836
 C         1.406712        -0.064312        -0.168739
 C         1.728922         1.207632        -0.931009
 C         3.102182         0.794253        -0.267819
 C         4.171779         0.452084        -1.337395
 O         3.336001        -0.627058        -1.911084
 C         2.741286        -0.706584        -0.490046
 O         3.058263         1.263709         1.023780
 C         1.860643         0.389352         1.352188
 H        -0.639326         0.236255        -0.431924
 H         0.042358        -1.284976        -1.243018
 H        -0.334076        -1.321819         0.573970
 H         1.887035         1.118339        -2.048532
 H         1.317129         2.216970        -0.584028
 H         4.392404         1.250658        -2.057969
 H         5.024945         0.053019        -0.577251
 H         3.201749        -1.443094         0.116781
 H         2.294785        -0.458314         2.067002
 H         1.046414         1.006694         1.859533
