19
Iteration:  2131charge 0 multiplicity 1
 C         0.054564        -0.713831        -0.245066
 C         1.330595        -0.061965        -0.178130
 C         1.754192         1.181771        -0.910142
 C         3.158180         0.736420        -0.316445
 C         4.227160         0.547565        -1.370652
 O         3.406133        -0.589569        -1.808026
 C         2.706537        -0.709186        -0.499039
 O         3.074716         1.096438         1.061820
 C         1.753523         0.519627         1.229105
 H        -0.526300        -0.436516         0.739807
 H        -0.582635        -0.683189        -1.122881
 H         0.047460        -1.781269        -0.029441
 H         1.770803         1.092020        -2.000811
 H         1.107506         1.974527        -0.594194
 H         4.334536         1.129836        -2.319136
 H         5.320817         0.311354        -0.988442
 H         3.106660        -1.539835         0.029391
 H         1.584625        -0.183126         2.140076
 H         1.084409         1.422561         1.400247
