19
Iteration:  1821charge 0 multiplicity 1
 C        -0.117971        -0.755726        -0.252303
 C         1.320606        -0.076729        -0.174225
 C         1.800387         1.182653        -0.959155
 C         3.158680         0.781530        -0.286765
 C         4.250124         0.483378        -1.393154
 O         3.371381        -0.617434        -1.783807
 C         2.777367        -0.639112        -0.492459
 O         3.088053         1.218392         1.053626
 C         1.804311         0.402149         1.287953
 H        -0.813528        -0.179460         0.372523
 H        -0.675532        -0.509088        -1.257758
 H        -0.068683        -1.902123        -0.093667
 H         1.940681         1.067519        -2.020222
 H         1.379072         2.085119        -0.738422
 H         4.214191         1.241110        -2.142520
 H         5.230291         0.183697        -0.900258
 H         3.217570        -1.560931        -0.042898
 H         1.951871        -0.394157         2.025569
 H         1.107550         1.238022         1.556464
