19
Iteration:   219charge 0 multiplicity 1
 C        -0.094806        -0.786447        -0.214411
 C         1.280830        -0.044201        -0.102136
 C         1.703713         1.455772        -0.436192
 C         3.131267         0.762619        -0.277300
 C         4.117605         0.880929        -1.475892
 O         3.243292        -0.098540        -2.147964
 C         2.674165        -0.480528        -0.820532
 O         3.324052         0.461261         1.091146
 C         2.032787        -0.113025         1.371060
 H        -0.733868        -0.448369         0.630509
 H        -0.611669        -0.206560        -0.997691
 H        -0.177038        -1.941539        -0.248873
 H         1.422450         1.810229        -1.416101
 H         1.574480         2.166514         0.296916
 H         4.091880         1.845771        -1.926284
 H         5.157884         0.423855        -1.348397
 H         3.168535        -1.444557        -0.569586
 H         2.121817        -1.200767         1.634353
 H         1.519011         0.507929         2.138732
