19
Iteration:  3496
 C        -0.086188        -0.758036        -0.101935
 C         1.323332        -0.046777        -0.213720
 C         1.810339         1.284997        -0.986756
 C         3.146693         0.815777        -0.303385
 C         4.217103         0.606992        -1.365562
 O         3.466743        -0.744653        -1.773569
 C         2.768198        -0.645063        -0.555882
 O         3.063863         1.065366         1.035576
 C         1.757512         0.476996         1.204102
 H        -0.885773        -0.004956        -0.111381
 H        -0.384764        -1.274882        -1.057342
 H        -0.200445        -1.382931         0.809431
 H         1.895767         1.122422        -2.092085
 H         1.298758         2.161875        -0.531451
 H         4.229385         1.327413        -2.124021
 H         5.234952         0.279385        -0.956682
 H         3.058784        -1.482084         0.061265
 H         1.823292        -0.415570         1.923749
 H         0.957230         1.136486         1.593238
