19
Iteration:  1546
 C         0.040681        -0.741574        -0.201968
 C         1.342863        -0.000216        -0.100143
 C         1.720271         1.280718        -0.941570
 C         3.179738         0.750285        -0.333730
 C         4.223171         0.617430        -1.467984
 O         3.416040        -0.593165        -1.871609
 C         2.710915        -0.637384        -0.471305
 O         3.049112         0.976764         1.066795
 C         1.760269         0.400084         1.287788
 H         0.198173        -1.532769        -0.953615
 H        -0.541522        -1.264608         0.582646
 H        -0.730199         0.006123        -0.604079
 H         1.569850         1.129847        -2.004749
 H         1.382993         2.206340        -0.414892
 H         4.400541         1.389823        -2.114781
 H         5.253491         0.225815        -1.068726
 H         2.943148        -1.596943         0.120933
 H         1.931174        -0.436950         1.970670
 H         1.170895         1.123265         1.939173
