19
Iteration:  2016charge 0 multiplicity 1
 C         0.060026        -0.762583        -0.288793
 C         1.370414        -0.092039        -0.116889
 C         1.852056         1.105162        -0.927785
 C         3.183699         0.710453        -0.266288
 C         4.144943         0.570477        -1.391552
 O         3.274053        -0.553022        -1.857865
 C         2.790543        -0.663253        -0.497658
 O         3.081636         1.083259         1.045929
 C         1.692421         0.564266         1.298952
 H        -0.639441        -0.021624        -0.517695
 H         0.177485        -1.574783        -1.055011
 H        -0.297201        -1.205062         0.681363
 H         1.837612         1.140714        -2.046785
 H         1.387359         2.148624        -0.497085
 H         4.514341         1.460393        -2.098059
 H         5.095441         0.110304        -1.054109
 H         3.160122        -1.582867        -0.001748
 H         1.714748        -0.125522         2.157665
 H         0.981049         1.394570         1.533575
