19
Iteration:  2707
 C        -0.024638        -0.663574        -0.128573
 C         1.321604        -0.107164        -0.172006
 C         1.773677         1.077128        -0.984262
 C         3.207036         0.670674        -0.274287
 C         4.300186         0.610671        -1.359531
 O         3.423546        -0.544305        -1.843480
 C         2.750835        -0.647317        -0.529626
 O         3.052913         1.174394         1.025539
 C         1.674411         0.428098         1.269122
 H        -0.656562        -0.161576         0.526851
 H        -0.618614        -0.558926        -1.053469
 H         0.010863        -1.792703        -0.024377
 H         1.812065         0.742517        -2.002416
 H         1.196660         2.081744        -0.741257
 H         4.477979         1.356239        -2.111496
 H         5.191485        -0.040286        -0.995431
 H         3.018927        -1.634240        -0.111513
 H         1.691353        -0.275930         2.013926
 H         0.974606         1.205142         1.567336
