19
Iteration:  1576charge 0 multiplicity 1
 C        -0.139010        -0.792640        -0.260633
 C         1.357749        -0.111150        -0.208569
 C         1.785942         1.236909        -0.869700
 C         3.163630         0.819314        -0.309977
 C         4.121637         0.627725        -1.492482
 O         3.418614        -0.602190        -1.849425
 C         2.718348        -0.621983        -0.451135
 O         3.176399         1.019675         1.139172
 C         1.800518         0.418577         1.281637
 H        -0.042796        -1.703449        -0.962049
 H        -0.524576        -1.012787         0.751750
 H        -0.657213         0.016193        -0.944948
 H         1.715781         1.400183        -1.922862
 H         1.471963         2.104482        -0.394141
 H         4.411025         1.350396        -2.373349
 H         5.121067         0.230986        -1.036569
 H         3.087016        -1.506688         0.082083
 H         1.822700        -0.276821         2.129846
 H         1.127197         1.212883         1.598314
