19
Iteration:  1225charge 0 multiplicity 1
 C        -0.038788        -0.818400        -0.180859
 C         1.340309        -0.128230        -0.135218
 C         1.868287         1.169284        -0.871535
 C         3.189136         0.792740        -0.272616
 C         4.192411         0.565747        -1.379276
 O         3.365217        -0.554423        -1.938418
 C         2.772330        -0.637533        -0.644350
 O         3.125131         1.073452         1.115775
 C         1.665177         0.495134         1.306943
 H        -0.456923        -0.481276        -1.123954
 H        -0.157726        -1.829255        -0.193758
 H        -0.756629        -0.484620         0.540891
 H         1.854890         1.103248        -1.977202
 H         1.487389         2.196172        -0.577858
 H         4.348152         1.419487        -2.060846
 H         5.143529         0.187121        -1.119209
 H         3.009388        -1.530564        -0.044842
 H         1.540508        -0.089574         2.261605
 H         1.035517         1.357367         1.411121
