19
Iteration:  4097charge 0 multiplicity 1
 C        -0.134230        -0.729960        -0.248908
 C         1.260132         0.039961        -0.093816
 C         1.645182         1.221892        -0.988817
 C         3.087026         0.850361        -0.399376
 C         4.293797         0.505990        -1.337579
 O         3.593520        -0.661395        -1.788534
 C         2.638419        -0.573460        -0.522481
 O         3.094815         1.022545         0.981511
 C         1.868772         0.389733         1.360411
 H        -0.933562        -0.075728        -0.079834
 H        -0.115402        -1.102805        -1.270884
 H        -0.131900        -1.643178         0.334242
 H         1.452197         1.155404        -2.020416
 H         1.240372         2.236731        -0.703546
 H         4.354454         1.074337        -2.335768
 H         5.246143         0.417235        -0.775360
 H         3.101071        -1.210501         0.326532
 H         2.154162        -0.615064         1.854144
 H         1.467325         0.950719         2.178234
