19
Iteration:  4515charge 0 multiplicity 1
 C        -0.020535        -0.791137        -0.255047
 C         1.340248        -0.069822        -0.221919
 C         1.747796         1.257342        -0.931672
 C         3.175461         0.818948        -0.296816
 C         4.160428         0.481921        -1.401447
 O         3.408943        -0.704883        -1.745490
 C         2.709693        -0.566109        -0.444986
 O         3.106025         1.157861         1.063130
 C         1.786385         0.432861         1.207711
 H        -0.591206        -0.154555         0.429220
 H        -0.290621        -0.726744        -1.321809
 H         0.047134        -1.867102        -0.046326
 H         1.901152         1.189943        -2.033798
 H         1.348558         2.313970        -0.464961
 H         4.033638         1.194263        -2.287043
 H         5.263099         0.334209        -1.098384
 H         3.159316        -1.372229         0.215234
 H         1.935522        -0.424227         1.830107
 H         0.915821         0.916368         1.660072
