19
Iteration:  2125
 C        -0.023068        -0.741968        -0.216606
 C         1.346047        -0.099116        -0.152891
 C         1.779342         1.179419        -0.959118
 C         3.163024         0.726201        -0.348195
 C         4.267775         0.535317        -1.345073
 O         3.412043        -0.536508        -1.794714
 C         2.707690        -0.719125        -0.488661
 O         3.078695         1.104816         1.032106
 C         1.709466         0.518471         1.248668
 H        -0.574650        -0.284479         0.564432
 H        -0.642256        -0.414400        -1.089300
 H         0.236742        -1.825512        -0.065736
 H         1.726248         1.043610        -2.042369
 H         1.142328         2.056612        -0.585660
 H         4.150931         1.196018        -2.208653
 H         5.206947         0.162477        -1.042187
 H         3.279361        -1.557197         0.050446
 H         1.812033        -0.226159         2.005400
 H         1.164024         1.386094         1.589065
