19
Iteration:   256
 C        -0.059172        -0.638232        -0.254975
 C         1.377601        -0.133991        -0.148329
 C         1.671210         1.358867        -0.476539
 C         3.198940         0.793844        -0.256346
 C         4.115051         0.768012        -1.439618
 O         3.172208        -0.110286        -2.127278
 C         2.623642        -0.543864        -0.837577
 O         3.225433         0.706635         1.181962
 C         2.120952        -0.213381         1.318504
 H        -0.292023        -1.402749         0.582639
 H        -0.595012         0.298800        -0.040830
 H        -0.368865        -1.051520        -1.183184
 H         1.411670         1.810523        -1.460575
 H         1.334261         2.189016         0.297606
 H         4.226957         1.743396        -1.990935
 H         5.011176         0.313884        -1.327388
 H         2.971473        -1.530252        -0.570767
 H         2.569628        -1.230216         1.505746
 H         1.543018         0.045739         2.273367
