19
Iteration:   781charge 0 multiplicity 1
 C        -0.052456        -0.703886        -0.306669
 C         1.393489        -0.098276        -0.126107
 C         1.784507         1.219534        -0.774193
 C         3.152034         0.733539        -0.250283
 C         4.146829         0.739833        -1.427306
 O         3.212635        -0.444026        -2.044472
 C         2.796596        -0.610255        -0.604478
 O         3.160696         0.895432         1.172417
 C         1.867277         0.266968         1.372652
 H        -0.016084        -1.740852        -0.661298
 H        -0.617749        -0.715328         0.658948
 H        -0.599727        -0.175351        -1.095520
 H         1.896832         1.343271        -1.832229
 H         1.437818         2.050938        -0.242502
 H         4.214722         1.581196        -2.210057
 H         5.133481         0.341850        -1.221076
 H         3.208509        -1.586567        -0.184961
 H         1.873840        -0.588773         2.165127
 H         1.189275         1.115636         1.802591
