19
Iteration:   785
 C        -0.064465        -0.696579        -0.294444
 C         1.386645        -0.099482        -0.097637
 C         1.773655         1.207118        -0.757897
 C         3.193249         0.722193        -0.266711
 C         4.180192         0.740381        -1.448993
 O         3.207393        -0.442464        -2.064982
 C         2.811191        -0.604285        -0.588452
 O         3.138946         0.942288         1.175880
 C         1.858175         0.236360         1.383734
 H         0.011015        -1.709419        -0.760251
 H        -0.705636        -0.870589         0.566815
 H        -0.727254        -0.136882        -1.115211
 H         1.863625         1.309873        -1.847324
 H         1.487034         2.134026        -0.179768
 H         4.303886         1.555177        -2.193474
 H         5.082492         0.185752        -1.213522
 H         3.188308        -1.571128        -0.263038
 H         1.838904        -0.536271         2.112141
 H         1.206836         0.994450         1.795323
