19
Iteration:  2367charge 0 multiplicity 1
 C        -0.017834        -0.715186        -0.201254
 C         1.287685         0.007275        -0.182875
 C         1.765430         1.234217        -0.901150
 C         3.207077         0.782741        -0.356346
 C         4.168714         0.626309        -1.485169
 O         3.489672        -0.698831        -1.768702
 C         2.741042        -0.696264        -0.476988
 O         3.076735         1.029851         1.079277
 C         1.699322         0.466844         1.222055
 H        -0.690756        -0.016590         0.219045
 H        -0.146685        -1.237639        -1.177981
 H         0.006311        -1.458584         0.680554
 H         1.721894         1.260764        -1.990557
 H         1.238550         2.114506        -0.707641
 H         4.252552         1.321602        -2.350545
 H         5.191519         0.344427        -1.137392
 H         3.198142        -1.383920         0.304583
 H         1.701130        -0.481588         1.872989
 H         1.005706         1.185525         1.728871
