19
Iteration:   672
 C        -0.060515        -0.725505        -0.242977
 C         1.309631        -0.103613        -0.027751
 C         1.762667         1.282194        -0.646551
 C         3.168709         0.771340        -0.321354
 C         4.191071         0.721419        -1.488143
 O         3.360011        -0.330952        -2.035124
 C         2.640113        -0.619034        -0.715241
 O         3.200200         0.816506         1.113627
 C         1.855222         0.208940         1.366578
 H        -0.851045        -0.252776         0.413139
 H        -0.307926        -0.763447        -1.337153
 H         0.060291        -1.876836         0.033425
 H         1.611654         1.338428        -1.708072
 H         1.479208         2.184535        -0.188157
 H         4.250155         1.669584        -2.139815
 H         5.161738         0.365842        -1.210341
 H         2.919989        -1.622118        -0.298404
 H         1.922569        -0.675694         1.961339
 H         1.145813         0.856065         1.949974
