19
Iteration:  4077charge 0 multiplicity 1
 C        -0.070028        -0.699067        -0.249109
 C         1.315819        -0.070707        -0.124221
 C         1.717493         1.270624        -0.865255
 C         3.081771         0.803869        -0.383679
 C         4.240473         0.591586        -1.357206
 O         3.477972        -0.700697        -1.809799
 C         2.761544        -0.657677        -0.542658
 O         3.099775         1.148547         1.004558
 C         1.806003         0.353543         1.276089
 H        -0.889835         0.049215        -0.275547
 H        -0.171962        -1.281313        -1.170031
 H        -0.314765        -1.463820         0.570437
 H         1.463860         1.029107        -1.856158
 H         1.392732         2.309504        -0.646205
 H         4.548403         1.323242        -2.148169
 H         5.029348         0.034830        -0.759951
 H         3.133584        -1.470393         0.121523
 H         1.978815        -0.461743         2.089360
 H         1.108661         1.081021         1.738177
