19
Iteration:   814
 C         0.023740        -0.706838        -0.289384
 C         1.356906        -0.084383        -0.148253
 C         1.702887         1.287181        -0.740393
 C         3.140268         0.765019        -0.281044
 C         4.243591         0.557490        -1.393667
 O         3.258269        -0.392873        -1.973370
 C         2.677158        -0.599234        -0.630558
 O         3.073978         1.043566         1.079470
 C         1.962118         0.154085         1.375837
 H        -0.021817        -1.331343        -1.184568
 H        -0.280663        -1.352018         0.535387
 H        -0.769981         0.035814        -0.322863
 H         1.705209         1.472389        -1.800644
 H         1.410910         2.132145        -0.175299
 H         4.540785         1.306384        -2.223512
 H         5.109495         0.028167        -1.021437
 H         2.988370        -1.636270        -0.284226
 H         2.266022        -0.853832         1.861656
 H         1.205585         0.736255         2.034971
