19
Iteration:  1264
 C         0.107688        -0.757156        -0.248687
 C         1.315677        -0.000274        -0.162329
 C         1.687877         1.286915        -0.917041
 C         3.154099         0.833443        -0.276758
 C         4.199224         0.496632        -1.338965
 O         3.355782        -0.633446        -1.819294
 C         2.650000        -0.565383        -0.571554
 O         3.141294         1.084775         1.047707
 C         1.754582         0.335498         1.258513
 H        -0.376779        -0.583359        -1.231848
 H         0.445385        -1.896205        -0.299041
 H        -0.510894        -0.609407         0.674900
 H         1.709290         1.248989        -2.001427
 H         1.320734         2.231574        -0.492549
 H         4.518387         1.200416        -2.176154
 H         5.067096        -0.021003        -0.816733
 H         3.033399        -1.438564        -0.034851
 H         2.029349        -0.556976         1.801218
 H         1.131862         1.072069         1.834216
