19
Iteration:  2226
 C        -0.129858        -0.705752        -0.184135
 C         1.345735        -0.057668        -0.106110
 C         1.645754         1.108578        -0.921933
 C         3.209575         0.748252        -0.337536
 C         4.336702         0.556616        -1.406853
 O         3.443096        -0.572901        -1.829014
 C         2.747307        -0.655485        -0.515054
 O         3.082372         1.110586         1.036804
 C         1.737535         0.418512         1.267416
 H        -0.690364         0.137300        -0.324983
 H        -0.016256        -1.339155        -1.053665
 H        -0.720487        -1.171776         0.623495
 H         1.683512         0.967876        -2.022038
 H         1.308121         2.204970        -0.674337
 H         4.411476         1.310875        -2.269403
 H         5.333825         0.364050        -1.053699
 H         3.241257        -1.508398         0.031609
 H         1.982936        -0.248508         2.002358
 H         1.101873         1.140836         1.698754
