19
Iteration:  2554
 C        -0.027910        -0.707769        -0.122422
 C         1.318273        -0.036554        -0.231297
 C         1.726315         1.252225        -0.942735
 C         3.157989         0.829105        -0.342242
 C         4.253439         0.522964        -1.349457
 O         3.536179        -0.672399        -1.802715
 C         2.639237        -0.636510        -0.605486
 O         3.045781         1.124036         1.018079
 C         1.766835         0.382438         1.281264
 H        -0.879886        -0.144768         0.191935
 H        -0.168049        -1.350178        -1.051311
 H        -0.090311        -1.467635         0.772524
 H         1.718350         1.120286        -2.043959
 H         1.221657         2.177240        -0.706163
 H         4.563254         1.218030        -2.115401
 H         5.097134         0.239367        -0.617452
 H         2.918478        -1.556534        -0.069121
 H         1.936684        -0.512472         2.047294
 H         1.119792         1.202607         1.718510
