19
Iteration:  3426
 C        -0.013249        -0.745824        -0.328527
 C         1.338451        -0.136190        -0.092517
 C         1.755354         1.137958        -0.965420
 C         3.279663         0.792748        -0.251557
 C         4.302218         0.435987        -1.387535
 O         3.258237        -0.609244        -1.782012
 C         2.703981        -0.674993        -0.433203
 O         2.981095         1.297467         1.030471
 C         1.869077         0.493720         1.225880
 H        -0.778203        -0.292905         0.267190
 H        -0.168956        -0.479983        -1.340254
 H         0.065032        -1.795926        -0.189097
 H         1.713516         0.903204        -2.041681
 H         1.382557         2.111018        -0.585538
 H         4.371027         1.317254        -2.203992
 H         5.252269        -0.091770        -1.111761
 H         3.006539        -1.593835         0.111693
 H         2.103449        -0.381708         1.911656
 H         1.146440         1.079734         1.836022
