19
Iteration:  3023
 C        -0.100611        -0.632213        -0.188791
 C         1.325439        -0.119939        -0.072370
 C         1.753272         1.061642        -0.985747
 C         3.166837         0.727208        -0.378197
 C         4.250159         0.660272        -1.409540
 O         3.451929        -0.543265        -1.913975
 C         2.878653        -0.746130        -0.417963
 O         3.007865         1.095003         1.026014
 C         1.709903         0.470089         1.325668
 H        -0.899850        -0.013513         0.246076
 H        -0.356882        -0.856548        -1.243648
 H        -0.451172        -1.539024         0.406988
 H         1.702533         0.846771        -2.048443
 H         1.640660         1.975992        -0.502192
 H         4.547620         1.378080        -2.142875
 H         5.238278         0.231787        -0.916488
 H         3.176219        -1.718745        -0.020803
 H         1.839674        -0.160318         2.264773
 H         1.158097         1.396650         1.513923
