19
Iteration:  1820
 C        -0.122362        -0.756017        -0.246083
 C         1.315705        -0.082541        -0.168797
 C         1.810378         1.180065        -0.967432
 C         3.168196         0.781844        -0.294072
 C         4.243120         0.482167        -1.383756
 O         3.372467        -0.613195        -1.793262
 C         2.780316        -0.643908        -0.486459
 O         3.087799         1.216152         1.056871
 C         1.800308         0.406810         1.288651
 H        -0.820087        -0.161347         0.360837
 H        -0.671985        -0.523251        -1.272507
 H        -0.093725        -1.913736        -0.077605
 H         1.966678         1.084245        -2.026140
 H         1.402117         2.101035        -0.733859
 H         4.178992         1.284477        -2.181459
 H         5.212476         0.208052        -0.888396
 H         3.236712        -1.567804        -0.054021
 H         1.954314        -0.409561         2.037886
 H         1.079082         1.251703         1.547758
