19
Iteration:  4041
 C        -0.033792        -0.769960        -0.219573
 C         1.402542        -0.075904        -0.110739
 C         1.892580         1.169227        -0.999101
 C         3.260846         0.761999        -0.243082
 C         4.242411         0.567026        -1.436335
 O         3.264302        -0.544579        -1.870770
 C         2.773079        -0.703820        -0.510303
 O         3.012888         1.148091         1.101642
 C         1.656826         0.444154         1.295631
 H        -0.784248        -0.023222        -0.142244
 H        -0.115433        -1.282749        -1.199242
 H        -0.155207        -1.420002         0.579558
 H         1.817727         0.684557        -1.964655
 H         1.642756         2.221236        -0.815385
 H         4.476036         1.369398        -2.261042
 H         5.191405         0.123828        -1.216515
 H         3.167417        -1.536860         0.189534
 H         1.787582        -0.313065         2.116519
 H         0.953285         1.232288         1.535150
