19
Iteration:  4500charge 0 multiplicity 1
 C         0.029005        -0.782120        -0.285669
 C         1.330162        -0.014357        -0.227813
 C         1.843801         1.271130        -0.929940
 C         3.190381         0.819924        -0.301358
 C         4.181680         0.606137        -1.528437
 O         3.367546        -0.755488        -1.743461
 C         2.787745        -0.711584        -0.444460
 O         3.087065         1.131605         1.147439
 C         1.664622         0.465739         1.255289
 H        -0.786112        -0.492529         0.366509
 H        -0.567998        -0.857694        -1.188169
 H         0.315704        -1.773262         0.156053
 H         1.653370         1.309281        -2.049742
 H         1.417186         2.113732        -0.588120
 H         4.110218         1.386542        -2.375585
 H         5.173863         0.291279        -1.365941
 H         3.027666        -1.455935         0.252022
 H         1.695612        -0.324601         2.098217
 H         1.116667         1.344374         1.615222
