19
Iteration:  4672
 C        -0.036517        -0.742330        -0.278057
 C         1.355203        -0.056450        -0.054580
 C         1.726260         1.213874        -0.969412
 C         3.200156         0.795528        -0.326326
 C         4.306969         0.402394        -1.362832
 O         3.340321        -0.630241        -1.910645
 C         2.757462        -0.649381        -0.440578
 O         2.955282         1.265655         1.044778
 C         1.841219         0.418259         1.356128
 H        -0.840576        -0.221384         0.237863
 H        -0.156161        -0.795865        -1.363598
 H        -0.094080        -1.797245        -0.081795
 H         1.691868         0.959166        -2.137790
 H         1.455281         2.298816        -0.799231
 H         4.478317         1.094447        -2.198607
 H         5.279497        -0.077176        -0.955772
 H         3.195158        -1.439857         0.269276
 H         2.009217        -0.504942         1.858822
 H         1.191722         1.162111         1.766325
