19
Iteration:  4543charge 0 multiplicity 1
 C        -0.063273        -0.684468        -0.262411
 C         1.257504        -0.050630        -0.065034
 C         1.660541         1.147048        -0.935122
 C         3.099088         0.739454        -0.406975
 C         4.382638         0.516858        -1.237593
 O         3.427763        -0.650813        -1.918604
 C         2.745398        -0.643992        -0.563241
 O         3.037584         1.218566         0.964204
 C         1.857544         0.436865         1.407857
 H        -0.879507        -0.072155         0.191554
 H        -0.217964        -0.744194        -1.356541
 H         0.065172        -1.655426         0.321107
 H         1.444451         0.909853        -2.026232
 H         1.445084         2.087491        -0.734212
 H         4.742717         1.214153        -2.023212
 H         5.126217         0.175500        -0.599255
 H         3.240353        -1.397640         0.009679
 H         2.094277        -0.480747         2.073149
 H         0.973047         0.770977         1.988246
