19
Iteration:  1777
 C        -0.074613        -0.703461        -0.143976
 C         1.383992        -0.086287        -0.152609
 C         1.695936         1.227837        -0.990990
 C         3.137086         0.842191        -0.283346
 C         4.233063         0.496331        -1.349331
 O         3.477680        -0.615574        -1.858173
 C         2.739744        -0.669207        -0.593967
 O         3.114099         1.052246         1.105972
 C         1.729778         0.488422         1.227941
 H        -0.850346        -0.027171        -0.487417
 H        -0.077090        -1.494294        -0.990909
 H        -0.214027        -1.254677         0.843610
 H         1.539532         1.178943        -2.056940
 H         1.268828         2.085962        -0.584680
 H         4.343178         1.152655        -2.125402
 H         5.238926         0.166849        -0.919325
 H         3.027256        -1.529942         0.055492
 H         1.857750        -0.259355         1.997636
 H         1.018482         1.264550         1.568955
