19
Iteration:  3196
 C        -0.101758        -0.718427        -0.207091
 C         1.303368        -0.027869        -0.110273
 C         1.706776         1.197408        -0.995838
 C         3.121707         0.813958        -0.378586
 C         4.283622         0.474393        -1.257405
 O         3.515839        -0.639038        -1.856845
 C         2.687615        -0.646085        -0.474496
 O         3.024312         1.178403         0.975776
 C         1.896051         0.412269         1.280395
 H        -1.051059        -0.133833        -0.015871
 H        -0.459960        -1.246829        -1.082665
 H        -0.108714        -1.454701         0.626059
 H         1.297329         0.960632        -2.042191
 H         1.399148         2.257026        -0.781745
 H         4.586332         1.169880        -2.065613
 H         5.121848         0.139249        -0.736884
 H         3.181763        -1.504923        -0.005146
 H         2.213300        -0.462000         1.870416
 H         1.167651         1.003522         1.876415
