19
Iteration:  1567
 C         0.013674        -0.719518        -0.285462
 C         1.302134        -0.108378        -0.211095
 C         1.755557         1.245036        -0.846320
 C         3.128120         0.824282        -0.316412
 C         4.120539         0.564080        -1.466699
 O         3.408084        -0.631342        -1.847823
 C         2.765339        -0.584828        -0.561185
 O         3.183225         0.993895         1.161804
 C         1.760024         0.404292         1.284975
 H        -0.037684        -1.737318        -0.748153
 H        -0.477080        -0.992060         0.683701
 H        -0.907778        -0.082424        -0.636068
 H         1.878895         1.237081        -1.899245
 H         1.347807         2.115180        -0.389867
 H         4.089090         1.265279        -2.286907
 H         5.180462         0.564786        -0.920778
 H         3.156366        -1.369999         0.174975
 H         1.838062        -0.181589         2.172544
 H         1.087010         1.293885         1.481603
