19
Iteration:  1449charge 0 multiplicity 1
 C        -0.016983        -0.725876        -0.255129
 C         1.311006        -0.068842        -0.226673
 C         1.755086         1.235149        -0.879470
 C         3.192878         0.752030        -0.261623
 C         4.141354         0.618071        -1.459028
 O         3.460260        -0.595147        -1.739914
 C         2.701621        -0.667818        -0.500200
 O         3.115034         1.019511         1.030212
 C         1.794532         0.438069         1.269033
 H        -0.656783        -0.537574        -1.091424
 H        -0.014174        -1.816132        -0.194149
 H        -0.558809        -0.401391         0.607826
 H         1.907905         1.108554        -1.987234
 H         1.261640         2.208966        -0.313679
 H         4.034487         1.377730        -2.251821
 H         5.230349         0.413439        -1.236319
 H         2.891906        -1.736086        -0.159321
 H         1.869544        -0.278854         2.146452
 H         1.036870         1.319504         1.425585
