19
Iteration:  4303charge 0 multiplicity 1
 C         0.070416        -0.800179        -0.226490
 C         1.246382         0.049952        -0.165516
 C         1.716303         1.286263        -0.993630
 C         3.110926         0.842023        -0.360810
 C         4.257644         0.499384        -1.358252
 O         3.412135        -0.708007        -1.779677
 C         2.711134        -0.579667        -0.520280
 O         3.095645         1.099709         1.088639
 C         1.742302         0.402872         1.263432
 H        -0.825397        -0.465272         0.287184
 H        -0.138462        -1.068928        -1.267374
 H         0.323735        -1.764166         0.193743
 H         1.560736         1.111645        -2.045047
 H         1.458592         2.309915        -0.668628
 H         4.568653         1.092453        -2.277284
 H         5.105878         0.197309        -0.771557
 H         3.161495        -1.333139         0.097922
 H         1.949509        -0.465751         1.838949
 H         1.200470         1.134220         1.839156
