19
Iteration:  3684charge 0 multiplicity 1
 C         0.012362        -0.739133        -0.222387
 C         1.299377        -0.063710        -0.251722
 C         1.780678         1.333291        -0.985579
 C         3.112175         0.824137        -0.291663
 C         4.173554         0.543553        -1.424669
 O         3.403138        -0.695208        -1.689890
 C         2.791056        -0.639891        -0.494685
 O         3.087524         1.128561         1.079463
 C         1.778955         0.347490         1.233117
 H        -0.817499        -0.146513        -0.322956
 H        -0.032952        -1.272042        -1.173414
 H        -0.110550        -1.338539         0.678785
 H         1.736725         1.172646        -2.111195
 H         1.276324         2.227857        -0.519328
 H         3.987641         1.224353        -2.236999
 H         5.275259         0.188260        -1.299277
 H         3.258722        -1.254567         0.268278
 H         1.967536        -0.586749         1.824566
 H         0.986942         1.003399         1.745142
