19
Iteration:  3464charge 0 multiplicity 1
 C        -0.009948        -0.764032        -0.144395
 C         1.310674        -0.001128        -0.116623
 C         1.700040         1.228964        -0.972148
 C         3.120464         0.831151        -0.392347
 C         4.295288         0.517255        -1.312816
 O         3.493350        -0.706600        -1.803698
 C         2.702408        -0.591570        -0.573144
 O         3.052582         1.040265         1.045596
 C         1.783340         0.508078         1.223861
 H        -0.807455        -0.187130         0.398118
 H        -0.352229        -0.891490        -1.223120
 H        -0.147780        -1.806824         0.212734
 H         1.555839         1.068709        -2.071452
 H         1.248712         2.203786        -0.718505
 H         4.479888         1.185930        -2.079095
 H         5.178704         0.100165        -0.790687
 H         3.065702        -1.392453         0.081379
 H         1.907283        -0.239105         2.042576
 H         1.069006         1.293442         1.558631
