19
Iteration:  2924
 C         0.011051        -0.838230        -0.289800
 C         1.346125        -0.103326        -0.076784
 C         1.792566         1.162805        -0.922075
 C         3.182501         0.748002        -0.257889
 C         4.174762         0.538138        -1.323734
 O         3.309651        -0.524989        -1.877000
 C         2.783635        -0.641456        -0.463037
 O         3.114515         1.070761         0.980301
 C         1.724359         0.612379         1.263056
 H        -0.863696        -0.280321         0.043286
 H        -0.193984        -1.027402        -1.347583
 H        -0.143689        -1.907581         0.091839
 H         1.745312         0.845537        -1.940463
 H         1.486429         2.159654        -0.605359
 H         4.429752         1.271233        -2.019929
 H         5.097599         0.015381        -0.971446
 H         3.349905        -1.460448        -0.015369
 H         1.851640        -0.077426         2.202217
 H         1.027908         1.413423         1.583456
