19
Iteration:  4076charge 0 multiplicity 1
 C        -0.076159        -0.699872        -0.248686
 C         1.332646        -0.071849        -0.133347
 C         1.719883         1.264441        -0.862203
 C         3.086948         0.800977        -0.373631
 C         4.236071         0.587977        -1.357696
 O         3.472512        -0.694994        -1.814580
 C         2.759881        -0.663660        -0.540624
 O         3.093731         1.150948         1.009357
 C         1.803216         0.360295         1.269007
 H        -0.854366         0.055925        -0.268077
 H        -0.166578        -1.298066        -1.162943
 H        -0.292705        -1.442859         0.560221
 H         1.437465         1.036748        -1.831448
 H         1.402008         2.304974        -0.644085
 H         4.562514         1.317964        -2.170782
 H         5.023847         0.061538        -0.774472
 H         3.129375        -1.481325         0.156804
 H         1.980459        -0.449447         2.080562
 H         1.127278         1.080749         1.730988
