19
Iteration:  4467
 C         0.013470        -0.789384        -0.312504
 C         1.321573        -0.089542        -0.115068
 C         1.754058         1.154625        -0.938187
 C         3.153821         0.780018        -0.321488
 C         4.259238         0.559519        -1.336064
 O         3.329217        -0.635602        -1.879348
 C         2.728156        -0.693999        -0.503494
 O         3.129604         1.149351         1.077307
 C         1.744945         0.565118         1.320161
 H        -0.774188        -0.129456         0.016962
 H        -0.006782        -1.136163        -1.337024
 H         0.030588        -1.719933         0.290077
 H         1.523351         0.923697        -1.987722
 H         1.326412         2.023860        -0.608892
 H         4.451497         1.423051        -2.073031
 H         5.155450         0.081737        -0.991195
 H         3.184905        -1.433947         0.100168
 H         1.742933        -0.086939         2.238524
 H         1.076418         1.418624         1.495367
