19
Iteration:  1715
 C        -0.006749        -0.692276        -0.346678
 C         1.356044        -0.115771        -0.144750
 C         1.831667         1.171202        -0.897998
 C         3.175200         0.839757        -0.325879
 C         4.224812         0.490445        -1.373406
 O         3.315475        -0.633063        -1.876948
 C         2.770460        -0.654395        -0.481715
 O         3.020981         1.175987         1.066773
 C         1.787831         0.436222         1.378287
 H        -0.781818        -0.243171        -0.994718
 H         0.052435        -1.742236        -0.555979
 H        -0.494077        -0.682372         0.559129
 H         1.554667         1.058977        -1.987901
 H         1.349264         2.134388        -0.429243
 H         4.417555         1.213115        -2.233092
 H         5.212270         0.063086        -1.107027
 H         3.357234        -1.463735        -0.075669
 H         2.021303        -0.371314         2.140137
 H         1.009806         1.067790         1.783872
