19
Iteration:  1635charge 0 multiplicity 1
 C        -0.092109        -0.727262        -0.170077
 C         1.309749        -0.101907        -0.253703
 C         1.692981         1.218015        -0.920662
 C         3.179116         0.814138        -0.296368
 C         4.301284         0.490493        -1.332514
 O         3.353860        -0.536278        -1.834896
 C         2.759978        -0.585484        -0.572107
 O         3.074503         1.149063         1.027527
 C         1.843366         0.310363         1.292066
 H        -0.155983        -1.464770        -0.957652
 H        -0.269747        -1.295238         0.803564
 H        -0.865452         0.050589        -0.258477
 H         1.663379         1.233601        -2.027768
 H         1.356041         2.187459        -0.463970
 H         4.677365         1.042450        -2.133868
 H         5.149615        -0.138521        -0.803979
 H         3.277938        -1.388837         0.046874
 H         2.079030        -0.575735         1.849924
 H         1.054229         0.951769         1.729868
