19
Iteration:   181charge 0 multiplicity 1
 C        -0.019381        -0.693831        -0.191116
 C         1.411398        -0.170403        -0.079003
 C         1.858965         1.377177        -0.523641
 C         3.202703         0.604468        -0.266110
 C         4.082184         0.882827        -1.427243
 O         3.037459         0.116852        -2.189388
 C         2.685485        -0.623637        -0.877523
 O         3.247712         0.573550         1.207975
 C         1.968457        -0.125284         1.344414
 H        -0.595026         0.241994        -0.241531
 H        -0.131184        -1.429099        -1.000711
 H        -0.444648        -1.256294         0.721621
 H         1.578228         1.629138        -1.573427
 H         1.594234         2.155720         0.324928
 H         4.152286         1.947986        -1.875968
 H         5.099683         0.407111        -1.634216
 H         3.159672        -1.604413        -0.794652
 H         2.170644        -1.088744         1.769278
 H         1.326540         0.357778         2.073730
