19
Iteration:  4484charge 0 multiplicity 1
 C         0.067506        -0.812402        -0.266439
 C         1.356751        -0.010234        -0.049216
 C         1.825949         1.208535        -0.904601
 C         3.194754         0.737233        -0.329052
 C         4.167801         0.504400        -1.523525
 O         3.434462        -0.633231        -1.827653
 C         2.718569        -0.630092        -0.451908
 O         3.003829         1.048914         1.081572
 C         1.660297         0.594620         1.314332
 H        -0.844613        -0.338881         0.218892
 H        -0.090975        -0.814958        -1.380108
 H         0.121901        -1.843152         0.083793
 H         1.933418         1.073096        -1.956019
 H         1.591526         2.331669        -0.629811
 H         4.064783         1.196433        -2.312087
 H         5.278342         0.375693        -1.327782
 H         3.152912        -1.562732         0.059234
 H         1.725730        -0.157056         2.081322
 H         0.908446         1.401471         1.462394
