19
Iteration:  3590charge 0 multiplicity 1
 C         0.023173        -0.799283        -0.195806
 C         1.278740         0.051227        -0.187126
 C         1.859605         1.316053        -0.923375
 C         3.187531         0.810674        -0.416449
 C         4.202532         0.498808        -1.504722
 O         3.553172        -0.713831        -1.802879
 C         2.601684        -0.615034        -0.443989
 O         3.029048         1.090308         1.077909
 C         1.662697         0.430080         1.335319
 H        -0.911835        -0.586342         0.384336
 H        -0.349183        -1.045196        -1.199472
 H         0.431168        -1.748803         0.232192
 H         1.890924         1.143773        -1.936360
 H         1.618245         2.330541        -0.602202
 H         4.229498         1.236631        -2.396239
 H         5.137075         0.343737        -1.071154
 H         2.826278        -1.499149         0.218887
 H         1.737046        -0.331035         2.104073
 H         1.040833         1.242602         1.728946
