19
Iteration:  4563
 C        -0.148436        -0.710712        -0.180086
 C         1.378032        -0.108229        -0.079473
 C         1.722144         1.138388        -0.969610
 C         3.151175         0.815350        -0.360449
 C         4.257732         0.468934        -1.279493
 O         3.495320        -0.505657        -1.874151
 C         2.682832        -0.726263        -0.533472
 O         3.037457         1.208095         0.972997
 C         1.849072         0.421042         1.269348
 H        -0.836530         0.118527         0.085124
 H        -0.285383        -1.104571        -1.205741
 H        -0.289719        -1.526509         0.548456
 H         1.772134         0.948723        -2.065367
 H         1.227924         2.053870        -0.619452
 H         4.712638         1.158030        -1.936365
 H         5.042451        -0.088417        -0.707396
 H         3.107369        -1.666521        -0.080414
 H         1.980217        -0.374790         2.030340
 H         1.091133         1.089436         1.792546
