19
Iteration:  4578charge 0 multiplicity 1
 C        -0.042275        -0.683061        -0.134112
 C         1.294349        -0.137572        -0.282223
 C         1.780942         1.152032        -0.971527
 C         3.136852         0.787636        -0.350233
 C         4.323912         0.566159        -1.299914
 O         3.368792        -0.578131        -1.809989
 C         2.761131        -0.695026        -0.526758
 O         3.069662         1.144316         1.046416
 C         1.750388         0.426085         1.263411
 H        -0.752440         0.139805        -0.017294
 H        -0.424729        -1.361980        -0.915410
 H        -0.200023        -1.396717         0.753101
 H         1.689951         1.073733        -2.059740
 H         1.436843         2.077211        -0.597215
 H         4.479286         1.234263        -2.222988
 H         5.234352         0.256183        -0.849656
 H         3.092137        -1.529830         0.054462
 H         2.117817        -0.345960         2.010287
 H         1.002774         1.220815         1.505660
