19
Iteration:   707
 C        -0.040047        -0.663274        -0.182530
 C         1.412001        -0.096411        -0.190241
 C         1.654725         1.219471        -0.737789
 C         3.174639         0.799012        -0.314585
 C         4.313302         0.567445        -1.303568
 O         3.206966        -0.286463        -1.962330
 C         2.666121        -0.603223        -0.714844
 O         3.109955         0.993743         1.118002
 C         1.949659         0.115600         1.274341
 H        -0.444636        -0.842363         0.854276
 H        -0.704799         0.021238        -0.698567
 H         0.041432        -1.769223        -0.738431
 H         1.555294         1.271438        -1.830756
 H         1.169775         2.037599        -0.165919
 H         4.619047         1.419525        -2.052764
 H         5.192804        -0.087845        -1.104033
 H         3.080613        -1.566693        -0.349952
 H         2.331430        -0.873195         1.413262
 H         1.273410         0.442477         2.041340
