19
Iteration:  3888
 C         0.031076        -0.810758        -0.246005
 C         1.268517         0.031528        -0.168402
 C         1.781810         1.279956        -0.988512
 C         3.125541         0.842279        -0.348613
 C         4.232308         0.535257        -1.348874
 O         3.388615        -0.702069        -1.774640
 C         2.667037        -0.551653        -0.511754
 O         3.106759         1.092257         1.025373
 C         1.806590         0.384678         1.311398
 H        -0.940361        -0.326518        -0.448355
 H         0.188143        -1.498673        -1.140415
 H        -0.155288        -1.516098         0.555794
 H         1.662546         1.349473        -2.097719
 H         1.261842         2.069321        -0.600515
 H         4.490309         1.293478        -2.194549
 H         5.083336         0.132552        -0.761465
 H         3.084787        -1.276003         0.264898
 H         2.103351        -0.530372         1.940296
 H         1.095060         0.948407         1.909055
