19
Iteration:  2272
 C        -0.045687        -0.777162        -0.153365
 C         1.339860        -0.025672        -0.139419
 C         1.782117         1.289962        -0.964731
 C         3.137167         0.766361        -0.327165
 C         4.284785         0.522123        -1.396175
 O         3.459937        -0.637149        -1.802348
 C         2.705969        -0.642155        -0.497364
 O         3.065619         1.108929         1.019829
 C         1.716030         0.403574         1.207431
 H        -0.734320        -0.179468         0.447137
 H        -0.216776        -1.157862        -1.138849
 H         0.016967        -1.605062         0.519133
 H         1.548215         1.243817        -2.091309
 H         1.206545         2.256012        -0.598700
 H         4.396731         1.437583        -2.047484
 H         5.244236         0.163112        -1.134915
 H         2.970429        -1.524396         0.093822
 H         1.793798        -0.374888         1.913786
 H         1.081095         1.168005         1.635059
