19
Iteration:  2464
 C         0.013949        -0.829482        -0.278140
 C         1.329624        -0.019172        -0.149844
 C         1.793094         1.285878        -0.916279
 C         3.192587         0.747058        -0.352411
 C         4.148761         0.531913        -1.500522
 O         3.438028        -0.671700        -1.721594
 C         2.675897        -0.603873        -0.468854
 O         3.125238         1.068125         1.122894
 C         1.725041         0.505360         1.265143
 H        -0.883281        -0.303666         0.188288
 H        -0.142911        -0.734955        -1.393334
 H        -0.029998        -1.918329         0.131054
 H         1.507411         1.171951        -2.018354
 H         1.295719         2.307420        -0.617727
 H         4.186201         1.155237        -2.356643
 H         5.279877         0.291542        -1.334217
 H         3.132019        -1.298082         0.250393
 H         1.836450        -0.373660         2.035432
 H         1.018845         1.364487         1.345468
