19
Iteration:  3056charge 0 multiplicity 1
 C         0.022200        -0.787807        -0.202096
 C         1.321592        -0.023991        -0.233842
 C         1.773581         1.234009        -0.974294
 C         3.163336         0.839791        -0.324816
 C         4.176789         0.534994        -1.390582
 O         3.446895        -0.681791        -1.829481
 C         2.679312        -0.649656        -0.448531
 O         3.092897         1.171795         1.109160
 C         1.776944         0.401668         1.271556
 H        -0.711743        -0.236710         0.459806
 H        -0.499335        -0.754120        -1.168715
 H         0.252945        -1.827562         0.201516
 H         1.719502         1.373987        -2.062999
 H         1.429053         2.181248        -0.767338
 H         4.302896         1.195991        -2.232676
 H         5.169191         0.089792        -0.920652
 H         2.787543        -1.652455        -0.014045
 H         1.707689        -0.497826         1.940653
 H         1.000485         1.122522         1.553978
