19
Iteration:   675
 C        -0.090885        -0.716692        -0.235571
 C         1.339459        -0.109133        -0.040822
 C         1.795198         1.251549        -0.673379
 C         3.142524         0.790912        -0.333302
 C         4.186748         0.696487        -1.458837
 O         3.348277        -0.297203        -2.046928
 C         2.621919        -0.629781        -0.699656
 O         3.205800         0.842682         1.112985
 C         1.863848         0.188435         1.391195
 H        -0.865789        -0.303622         0.431562
 H        -0.304206        -0.684017        -1.294738
 H         0.113708        -1.922747        -0.068409
 H         1.631418         1.284800        -1.773627
 H         1.455010         2.229571        -0.190500
 H         4.242169         1.622462        -2.183090
 H         5.238766         0.307784        -1.111714
 H         2.970998        -1.603015        -0.324186
 H         1.957094        -0.734788         1.998900
 H         1.147026         0.838168         1.890578
