19
Iteration:   963charge 0 multiplicity 1
 C         0.012063        -0.769863        -0.239268
 C         1.295201         0.029864        -0.181691
 C         1.620812         1.342876        -0.813849
 C         3.214371         0.797242        -0.281832
 C         4.267293         0.503862        -1.397431
 O         3.356229        -0.521248        -1.927635
 C         2.666196        -0.614949        -0.591064
 O         3.198615         0.976993         1.122424
 C         1.762271         0.301254         1.283743
 H        -0.354884        -1.094730         0.778593
 H        -0.894417        -0.352640        -0.867971
 H         0.418046        -1.727956        -0.717217
 H         1.537883         1.410406        -1.940168
 H         1.171412         2.302940        -0.359129
 H         4.381177         1.307976        -2.016975
 H         5.339353         0.253778        -1.088664
 H         2.989338        -1.504130        -0.090965
 H         2.077310        -0.569169         1.888163
 H         1.154314         1.020326         1.783610
