19
Iteration:  2298
 C         0.009190        -0.815503        -0.302316
 C         1.342448        -0.106353        -0.117752
 C         1.770584         1.220060        -0.921559
 C         3.065450         0.819164        -0.324748
 C         4.293969         0.432086        -1.397702
 O         3.322633        -0.599942        -1.845588
 C         2.724592        -0.613281        -0.518693
 O         3.027214         1.219056         1.046148
 C         1.853245         0.480596         1.341450
 H        -0.605127        -0.338265         0.469646
 H        -0.169736        -0.666190        -1.354808
 H        -0.079339        -1.867154        -0.069535
 H         1.834698         1.065011        -1.957583
 H         1.344640         2.139544        -0.751821
 H         4.868532         0.974220        -2.059069
 H         5.029593        -0.102636        -0.750863
 H         3.025049        -1.470884         0.057566
 H         2.077848        -0.391743         2.099399
 H         1.110674         1.179311         1.832219
