19
Iteration:  4207
 C        -0.016316        -0.811559        -0.311804
 C         1.277400         0.023859        -0.134881
 C         1.646068         1.338235        -0.854364
 C         3.126776         0.859150        -0.340754
 C         4.232050         0.462932        -1.384267
 O         3.533159        -0.739625        -1.768549
 C         2.650710        -0.577702        -0.515586
 O         3.098021         1.146521         1.006894
 C         1.824840         0.369101         1.258646
 H        -0.807881        -0.109263        -0.163386
 H        -0.174931        -1.357318        -1.224596
 H        -0.227656        -1.587163         0.477973
 H         1.617612         1.350522        -1.951238
 H         1.459374         2.330049        -0.348613
 H         4.455182         1.098177        -2.305014
 H         5.154258         0.202500        -0.911810
 H         2.936537        -1.413648         0.235770
 H         2.199189        -0.527968         1.774413
 H         1.148183         0.957715         1.828652
