19
Iteration:   288charge 0 multiplicity 1
 C        -0.044087        -0.663068        -0.200061
 C         1.387973        -0.154469        -0.074663
 C         1.778512         1.275648        -0.549065
 C         3.247387         0.740113        -0.245322
 C         4.104315         0.846451        -1.476666
 O         3.169800        -0.042615        -2.169400
 C         2.664480        -0.560236        -0.829058
 O         3.259650         0.627747         1.178496
 C         1.879916        -0.091566         1.380287
 H        -0.055294        -1.768908        -0.421363
 H        -0.493443        -0.470403         0.781541
 H        -0.546866        -0.190614        -0.969248
 H         1.524544         1.285371        -1.606394
 H         1.466301         2.203143        -0.008213
 H         4.085616         1.836059        -2.013167
 H         5.027779         0.402016        -1.487502
 H         3.025998        -1.550466        -0.659436
 H         2.252952        -1.012955         1.878138
 H         1.374028         0.612141         2.119420
