19
Iteration:  1522charge 0 multiplicity 1
 C        -0.111374        -0.764828        -0.272973
 C         1.367199        -0.077820        -0.180545
 C         1.788110         1.239477        -0.876965
 C         3.168311         0.817512        -0.265380
 C         4.226049         0.508199        -1.320854
 O         3.341882        -0.542536        -1.897051
 C         2.718939        -0.683690        -0.605124
 O         3.080895         1.199573         1.049214
 C         1.848933         0.358644         1.313361
 H        -0.192775        -1.531717        -1.133481
 H        -0.255636        -1.509144         0.542994
 H        -1.048283        -0.076273        -0.086360
 H         1.776342         0.888673        -1.876889
 H         1.335762         2.116721        -0.544060
 H         4.581780         1.325354        -1.960100
 H         5.175532        -0.080776        -1.013905
 H         3.116117        -1.539040         0.024055
 H         2.209548        -0.416509         1.965883
 H         1.216079         0.971648         1.973914
