19
Iteration:  4314
 C         0.065922        -0.886368        -0.269594
 C         1.359890         0.027337        -0.255891
 C         1.753511         1.351532        -0.927205
 C         3.158451         0.890751        -0.388482
 C         4.222388         0.444497        -1.301713
 O         3.323696        -0.699960        -1.746403
 C         2.701647        -0.592979        -0.478984
 O         3.056668         1.151228         1.019344
 C         1.824769         0.390266         1.291679
 H        -0.693944        -0.355019         0.293856
 H        -0.385181        -0.964305        -1.265435
 H         0.284196        -1.833766         0.203709
 H         1.875931         1.241833        -1.997883
 H         1.176477         2.264295        -0.720003
 H         4.379302         1.186313        -2.170435
 H         5.135254         0.158347        -0.808523
 H         2.816814        -1.333157         0.257968
 H         1.946894        -0.573995         1.746043
 H         1.093751         0.913210         1.885894
