19
Iteration:  1419
 C        -0.016383        -0.709576        -0.314893
 C         1.339098        -0.043872        -0.098208
 C         1.744027         1.182221        -0.890207
 C         3.158307         0.789735        -0.319049
 C         4.240563         0.474874        -1.451275
 O         3.388997        -0.561783        -1.943296
 C         2.769051        -0.600994        -0.464518
 O         3.038902         1.141513         1.092836
 C         1.783867         0.337419         1.394440
 H        -0.502609        -0.700211        -1.281099
 H         0.018169        -1.757144         0.138184
 H        -0.844409        -0.239597         0.244043
 H         1.704009         1.033157        -1.971703
 H         1.274939         2.134193        -0.692396
 H         4.582181         1.287762        -2.219620
 H         5.057454        -0.018062        -0.958585
 H         3.273673        -1.436651        -0.046205
 H         2.071129        -0.349556         2.194550
 H         1.051293         1.037140         1.754701
