19
Iteration:  1650charge 0 multiplicity 1
 C        -0.052986        -0.764102        -0.164616
 C         1.291104        -0.019171        -0.109849
 C         1.779169         1.241180        -0.882796
 C         3.164097         0.807121        -0.419594
 C         4.292883         0.525409        -1.350005
 O         3.464044        -0.584436        -1.885257
 C         2.659951        -0.646891        -0.488627
 O         3.082203         1.074161         1.019449
 C         1.739952         0.369668         1.220201
 H        -0.306931        -1.175475        -1.144796
 H         0.037010        -1.474469         0.617565
 H        -0.809292        -0.076781         0.067608
 H         1.535724         1.214157        -1.972014
 H         1.352694         2.192494        -0.426493
 H         4.491164         1.443927        -1.990030
 H         5.159918         0.201280        -0.886873
 H         2.986890        -1.466790         0.121201
 H         1.941549        -0.535330         1.893591
 H         1.138741         1.102808         1.740333
