19
Iteration:   809charge 0 multiplicity 1
 C         0.023636        -0.714587        -0.304096
 C         1.386539        -0.092034        -0.096680
 C         1.732079         1.269403        -0.720049
 C         3.109946         0.750633        -0.280363
 C         4.247131         0.522270        -1.451619
 O         3.287682        -0.335656        -1.958963
 C         2.666386        -0.616176        -0.641858
 O         3.085285         1.054039         1.084369
 C         1.901078         0.165367         1.372376
 H        -0.114060        -1.403885        -1.154999
 H        -0.349445        -1.259703         0.605539
 H        -0.745661         0.085357        -0.523468
 H         1.679428         1.339090        -1.827509
 H         1.427016         2.151046        -0.072225
 H         4.345538         1.205868        -2.244562
 H         5.248894         0.037039        -1.106995
 H         2.997824        -1.566590        -0.322151
 H         2.238135        -0.693284         1.884667
 H         1.255001         0.622203         2.051398
