19
Iteration:  4078
 C        -0.064412        -0.698961        -0.248854
 C         1.299236        -0.069454        -0.115152
 C         1.714905         1.275998        -0.867964
 C         3.078340         0.807380        -0.393528
 C         4.244967         0.593577        -1.356060
 O         3.482990        -0.705387        -1.805544
 C         2.762394        -0.652179        -0.544313
 O         3.105057         1.145574         0.999897
 C         1.808772         0.347194         1.284754
 H        -0.920792         0.041828        -0.280745
 H        -0.175317        -1.264438        -1.179670
 H        -0.332232        -1.474736         0.573870
 H         1.491353         1.021990        -1.899000
 H         1.383345         2.307889        -0.643228
 H         4.532624         1.321795        -2.122065
 H         5.036124         0.022701        -0.753016
 H         3.137001        -1.455670         0.086755
 H         1.978129        -0.465142         2.084672
 H         1.090817         1.079431         1.743670
