19
Iteration:   328charge 0 multiplicity 1
 C        -0.053476        -0.834999        -0.277759
 C         1.301072        -0.074587        -0.092391
 C         1.771470         1.427715        -0.442280
 C         3.159100         0.831734        -0.255961
 C         4.094273         0.803830        -1.460288
 O         3.231158        -0.204868        -2.092701
 C         2.609666        -0.460589        -0.758943
 O         3.411841         0.549640         1.039326
 C         1.883619         0.002259         1.359594
 H        -0.192972        -1.269999        -1.293158
 H        -0.177391        -1.535014         0.569477
 H        -0.937517        -0.121225        -0.205377
 H         1.521181         1.752393        -1.462550
 H         1.393721         2.198115         0.195617
 H         4.100872         1.768759        -1.978474
 H         5.235769         0.459302        -1.265446
 H         3.050151        -1.435579        -0.451782
 H         1.988266        -0.961404         1.790074
 H         1.301861         0.700858         1.914332
