19
Iteration:   282
 C        -0.070238        -0.649682        -0.193755
 C         1.370248        -0.130916        -0.038620
 C         1.797258         1.238154        -0.527423
 C         3.237830         0.747922        -0.273143
 C         4.081975         0.853553        -1.486196
 O         3.119331        -0.023403        -2.138051
 C         2.741104        -0.574735        -0.810679
 O         3.255731         0.675442         1.183051
 C         1.902741        -0.158409         1.309063
 H        -0.082007        -1.728279        -0.250103
 H        -0.533117        -0.223643         0.725709
 H        -0.612192        -0.309096        -1.184573
 H         1.559643         1.321872        -1.606125
 H         1.599205         2.294192        -0.131203
 H         4.271688         1.778578        -2.023407
 H         5.085261         0.220888        -1.330661
 H         3.236571        -1.573848        -0.595030
 H         2.181020        -1.116517         1.761546
 H         1.313358         0.417398         1.989946
