19
Iteration:  1200charge 0 multiplicity 1
 C         0.017642        -0.636079        -0.233787
 C         1.339521        -0.110221        -0.158825
 C         1.700499         1.165294        -0.940282
 C         3.165447         0.729987        -0.309917
 C         4.278982         0.597306        -1.375177
 O         3.363100        -0.502064        -1.859087
 C         2.739665        -0.666729        -0.479405
 O         3.025115         1.052069         0.996328
 C         1.836307         0.368146         1.336741
 H        -0.322619        -0.831478        -1.269155
 H        -0.183334        -1.714096         0.186260
 H        -0.722670        -0.106400         0.414958
 H         1.708496         1.144221        -1.997957
 H         1.237279         2.014053        -0.616336
 H         4.483360         1.479830        -2.075641
 H         5.197432         0.189536        -1.160820
 H         3.021201        -1.512574         0.196296
 H         2.044442        -0.446373         2.032259
 H         1.142743         1.032870         1.849118
