19
Iteration:  1150
 C        -0.007637        -0.734580        -0.247954
 C         1.321986        -0.097502        -0.126578
 C         1.708030         1.321440        -0.874338
 C         3.145831         0.789998        -0.369655
 C         4.274453         0.551927        -1.344187
 O         3.409389        -0.591875        -1.808926
 C         2.654349        -0.619419        -0.633061
 O         3.084737         1.070136         1.013067
 C         1.855875         0.303147         1.318703
 H        -0.073484        -1.637560        -0.816072
 H        -0.390910        -1.059187         0.675638
 H        -0.770032        -0.037239        -0.483378
 H         1.238590         1.405832        -1.890982
 H         1.487088         2.297059        -0.241002
 H         4.265242         1.237132        -2.164959
 H         5.408084         0.422229        -1.015159
 H         2.986896        -1.419077         0.034553
 H         2.106355        -0.594982         1.962680
 H         1.158959         0.972184         1.822975
