19
Iteration:  4662charge 0 multiplicity 1
 C         0.046510        -0.722105        -0.368537
 C         1.380615        -0.068025        -0.091579
 C         1.739690         1.152938        -0.921253
 C         3.179450         0.806640        -0.363069
 C         4.299127         0.440198        -1.328307
 O         3.255621        -0.660139        -1.857459
 C         2.738079        -0.601900        -0.458656
 O         2.998810         1.239533         0.993271
 C         1.820857         0.432390         1.404201
 H        -0.736213        -0.094486         0.036435
 H        -0.124001        -0.608279        -1.433088
 H         0.024121        -1.730815         0.054007
 H         1.561176         0.870017        -2.054595
 H         1.203995         2.058395        -0.645993
 H         4.650602         1.152040        -2.112643
 H         5.163511        -0.093420        -0.866417
 H         3.096481        -1.516679         0.097714
 H         2.348616        -0.139481         2.123577
 H         1.037080         0.975972         1.984028
