19
Iteration:  1109
 C        -0.011869        -0.789344        -0.251163
 C         1.385183        -0.127860        -0.124847
 C         1.723429         1.194274        -0.946103
 C         3.221206         0.750835        -0.297502
 C         4.287350         0.600597        -1.463425
 O         3.296400        -0.445860        -1.876987
 C         2.692161        -0.664175        -0.585102
 O         3.148214         1.000083         1.205882
 C         1.742894         0.467960         1.332961
 H         0.019471        -1.836762        -0.694894
 H        -0.659425        -0.810000         0.797242
 H        -0.689917        -0.051294        -0.748296
 H         1.664666         0.933256        -1.991179
 H         1.445923         2.214801        -0.708063
 H         4.467039         1.461680        -2.072854
 H         5.205241        -0.007943        -1.436507
 H         3.015195        -1.654278        -0.268612
 H         1.813355        -0.070677         2.252437
 H         0.878919         1.187571         1.467193
