19
Iteration:   315
 C        -0.078313        -0.787526        -0.258282
 C         1.282524        -0.056469        -0.140118
 C         1.720710         1.404970        -0.434377
 C         3.146653         0.721071        -0.297232
 C         4.029630         0.898757        -1.411322
 O         3.265699        -0.162645        -2.131475
 C         2.638302        -0.612628        -0.842604
 O         3.401572         0.522461         1.136709
 C         1.954765         0.100618         1.334978
 H         0.109681        -1.594488        -0.956622
 H        -0.297264        -1.374436         0.672345
 H        -1.027164        -0.122253        -0.554384
 H         1.507552         1.718021        -1.505022
 H         1.615797         2.226233         0.400346
 H         4.073049         1.773991        -2.013440
 H         5.090905         0.447097        -1.170442
 H         3.048629        -1.593050        -0.442405
 H         2.059642        -0.767869         1.990319
 H         1.569263         0.920758         1.902702
