19
Iteration:   692
 C        -0.051594        -0.708228        -0.247694
 C         1.309486        -0.114462        -0.128039
 C         1.700286         1.256697        -0.816695
 C         3.179735         0.730200        -0.241959
 C         4.198899         0.633113        -1.319892
 O         3.207817        -0.252371        -2.076824
 C         2.744375        -0.653582        -0.685141
 O         3.170183         0.951106         1.125274
 C         1.981446         0.138924         1.365812
 H        -0.580943        -0.491124         0.707064
 H        -0.660301        -0.219970        -1.042283
 H        -0.150139        -1.709656        -0.385650
 H         1.623945         1.222474        -1.886339
 H         1.325890         2.161142        -0.425081
 H         4.607503         1.496597        -1.771091
 H         4.970608         0.007953        -0.973923
 H         3.228284        -1.594510        -0.318852
 H         2.279291        -0.734989         1.955006
 H         1.308247         0.717449         2.072337
