19
Iteration:  4576charge 0 multiplicity 1
 C        -0.054221        -0.684610        -0.137249
 C         1.292241        -0.148415        -0.265646
 C         1.782357         1.149239        -0.965613
 C         3.129428         0.795652        -0.353009
 C         4.323541         0.550769        -1.306732
 O         3.378695        -0.556710        -1.806705
 C         2.753459        -0.703672        -0.523900
 O         3.073277         1.152947         1.035952
 C         1.769843         0.428810         1.272428
 H        -0.784427         0.129676        -0.024047
 H        -0.436125        -1.306417        -0.975875
 H        -0.183559        -1.386806         0.756834
 H         1.670490         1.084013        -2.086860
 H         1.436530         2.047037        -0.653268
 H         4.531875         1.186545        -2.204717
 H         5.196023         0.271100        -0.775453
 H         3.079479        -1.596367        -0.003092
 H         2.119011        -0.360985         2.014252
 H         0.935179         1.162076         1.469593
