19
Iteration:   795
 C        -0.057496        -0.721005        -0.304941
 C         1.323938        -0.126905        -0.039600
 C         1.801247         1.237829        -0.698596
 C         3.267719         0.801226        -0.308879
 C         4.224871         0.625627        -1.495270
 O         3.243343        -0.371143        -2.020710
 C         2.735802        -0.702776        -0.637877
 O         3.118521         1.012351         1.161588
 C         1.811007         0.215790         1.374796
 H         0.120229        -1.617004        -0.936899
 H        -0.618426        -0.982797         0.583703
 H        -0.690740         0.123214        -0.899644
 H         1.401863         1.157677        -1.727002
 H         1.439418         2.224087        -0.317092
 H         4.419464         1.579629        -2.092659
 H         5.155937         0.134785        -1.308318
 H         3.285234        -1.583748        -0.198088
 H         2.124796        -0.678695         1.934364
 H         1.040993         0.849870         1.863693
