19
Iteration:  1198charge 0 multiplicity 1
 C         0.008676        -0.643606        -0.227668
 C         1.341163        -0.099094        -0.163038
 C         1.708790         1.162038        -0.936122
 C         3.165863         0.744659        -0.321110
 C         4.273291         0.600966        -1.365610
 O         3.363193        -0.513650        -1.850310
 C         2.741261        -0.651574        -0.493893
 O         3.025752         1.059142         0.983248
 C         1.842211         0.341714         1.353086
 H        -0.279877        -0.855925        -1.292246
 H        -0.245746        -1.729596         0.196821
 H        -0.742309        -0.050224         0.379301
 H         1.702356         1.128168        -2.017943
 H         1.235306         2.060681        -0.607557
 H         4.438555         1.457750        -2.046288
 H         5.269618         0.140751        -1.137413
 H         2.996244        -1.471141         0.191795
 H         2.059613        -0.483940         2.019266
 H         1.122967         1.036550         1.866518
