19
Iteration:  1999
 C        -0.044019        -0.806862        -0.290248
 C         1.398748        -0.122535        -0.142825
 C         1.801783         1.257915        -0.887199
 C         3.189327         0.810102        -0.373374
 C         4.226147         0.462287        -1.371765
 O         3.305622        -0.546479        -1.879450
 C         2.751688        -0.735598        -0.460208
 O         3.076513         1.200113         1.141347
 C         1.748335         0.465325         1.263773
 H        -0.820542         0.036960        -0.486726
 H         0.048114        -1.529019        -1.100171
 H        -0.355100        -1.321303         0.617050
 H         1.718791         1.121521        -1.936043
 H         1.428402         2.156223        -0.556965
 H         4.337587         1.075544        -2.214628
 H         5.281804         0.072239        -1.175059
 H         3.300161        -1.537969         0.027436
 H         1.882094        -0.261567         2.092764
 H         0.953695         1.187025         1.518428
