19
Iteration:  4051
 C         0.001058        -0.713907        -0.202844
 C         1.384985        -0.142063        -0.176606
 C         1.859743         1.163331        -0.958250
 C         3.161652         0.725771        -0.276869
 C         4.267380         0.522084        -1.453672
 O         3.299946        -0.538449        -1.822227
 C         2.796003        -0.676392        -0.472588
 O         3.015501         1.188880         1.098073
 C         1.700593         0.424770         1.285564
 H        -0.669509         0.115192        -0.211142
 H        -0.135203        -1.315049        -1.132806
 H        -0.199635        -1.370246         0.566376
 H         1.913982         1.184736        -2.099022
 H         1.341867         2.109020        -0.747956
 H         4.353320         1.492582        -2.086132
 H         5.129342        -0.035744        -1.340728
 H         3.183775        -1.692897        -0.137268
 H         1.751365        -0.298523         2.094213
 H         0.979749         1.183651         1.580733
