19
Iteration:   241charge 0 multiplicity 1
 C        -0.077609        -0.645988        -0.248096
 C         1.314023        -0.036531        -0.033006
 C         1.709116         1.378212        -0.360124
 C         3.072399         0.785617        -0.282278
 C         4.110844         0.845475        -1.431781
 O         3.272643        -0.162618        -2.167989
 C         2.570832        -0.536968        -0.867777
 O         3.326765         0.685991         1.129846
 C         2.075690        -0.235746         1.291387
 H        -0.496727        -1.193872         0.625575
 H        -0.835336         0.066686        -0.596994
 H         0.181245        -1.517208        -0.985187
 H         1.387929         1.509282        -1.384981
 H         1.433446         2.124760         0.265093
 H         4.255629         1.698494        -2.069960
 H         5.083915         0.320873        -1.099454
 H         2.923810        -1.569163        -0.708478
 H         2.477357        -1.257926         1.485005
 H         1.450535         0.222926         2.083778
