19
Iteration:  1647charge 0 multiplicity 1
 C        -0.051848        -0.752444        -0.170400
 C         1.302500        -0.019141        -0.131104
 C         1.769963         1.217020        -0.880805
 C         3.172971         0.798493        -0.406359
 C         4.281603         0.528418        -1.365714
 O         3.451162        -0.573436        -1.872053
 C         2.667168        -0.610675        -0.494127
 O         3.085204         1.091996         1.012786
 C         1.756191         0.343436         1.214010
 H        -0.367117        -1.249446        -1.072527
 H        -0.058400        -1.494135         0.691531
 H        -0.888979        -0.099939         0.003028
 H         1.535460         1.207156        -1.989250
 H         1.344731         2.152470        -0.358466
 H         4.582887         1.374693        -1.898639
 H         5.244899         0.061993        -0.846026
 H         2.993865        -1.437647         0.191598
 H         1.872036        -0.506808         1.877133
 H         1.134433         1.056370         1.785139
