19
Iteration:  1479
 C        -0.059264        -0.764973        -0.206268
 C         1.260858        -0.000820        -0.062641
 C         1.742449         1.264626        -0.908563
 C         3.167070         0.823093        -0.350428
 C         4.235916         0.588283        -1.384608
 O         3.444648        -0.667821        -1.888075
 C         2.800393        -0.595465        -0.552244
 O         3.048247         1.018614         1.029665
 C         1.774991         0.401388         1.322951
 H        -0.394572        -0.540354        -1.271341
 H         0.000754        -1.854171        -0.136918
 H        -0.734640        -0.359426         0.639702
 H         1.787477         1.047961        -1.987586
 H         1.319207         2.302701        -0.731685
 H         4.488195         1.242380        -2.163256
 H         5.213047         0.249685        -0.881173
 H         3.263339        -1.522102        -0.056478
 H         1.843922        -0.427852         2.031308
 H         1.012745         1.074333         1.822744
