19
Iteration:  2350
 C        -0.040997        -0.794752        -0.244020
 C         1.373583        -0.060949        -0.173067
 C         1.804588         1.284119        -0.956038
 C         3.113320         0.866698        -0.310598
 C         4.197659         0.473569        -1.453810
 O         3.443433        -0.700719        -1.773414
 C         2.732756        -0.601586        -0.507946
 O         3.072153         1.085031         1.085978
 C         1.767456         0.439653         1.344692
 H        -0.947158        -0.156729         0.145879
 H        -0.180496        -0.892150        -1.339443
 H         0.020485        -1.766984         0.164329
 H         1.651924         1.113310        -2.076367
 H         1.537531         2.380952        -0.491521
 H         3.939094         1.229405        -2.286201
 H         5.269520         0.541616        -1.406328
 H         2.912182        -1.462229         0.123054
 H         1.899672        -0.222939         2.146887
 H         1.027288         1.220228         1.465583
