19
Iteration:  3905
 C         0.002048        -0.777641        -0.271771
 C         1.288050         0.004008        -0.096806
 C         1.630277         1.270545        -0.927609
 C         3.110955         0.825551        -0.383318
 C         4.251970         0.486329        -1.378666
 O         3.521995        -0.625042        -1.838492
 C         2.740444        -0.650706        -0.530156
 O         3.105600         1.024271         1.083023
 C         1.740370         0.476803         1.337695
 H        -0.876953        -0.118550        -0.220748
 H        -0.040915        -1.417345        -1.128788
 H        -0.042880        -1.439414         0.634956
 H         1.557950         0.917338        -1.973738
 H         1.373788         2.417960        -0.939480
 H         4.413613         1.141079        -2.219982
 H         5.280236         0.371798        -1.044562
 H         2.990846        -1.466993         0.135683
 H         1.727786        -0.368990         1.981962
 H         1.164154         1.375518         1.702828
