19
Iteration:  3238
 C         0.038805        -0.783671        -0.264366
 C         1.359119        -0.096296        -0.169984
 C         1.784730         1.226027        -0.918369
 C         3.188560         0.763950        -0.381624
 C         4.231936         0.444342        -1.401120
 O         3.299585        -0.593170        -1.815646
 C         2.800786        -0.698199        -0.343915
 O         3.050401         1.159382         1.049757
 C         1.732650         0.543117         1.206846
 H        -0.692388        -0.266175         0.400523
 H        -0.379574        -0.544313        -1.241032
 H         0.103650        -1.787398         0.080324
 H         1.796771         1.060949        -2.074186
 H         1.450590         2.268390        -0.579535
 H         4.320309         1.361813        -2.120265
 H         5.133089         0.018314        -1.040620
 H         3.124140        -1.537052         0.336781
 H         1.826667        -0.215848         2.059597
 H         0.832561         1.210791         1.532902
