19
Iteration:  1535charge 0 multiplicity 1
 C        -0.033360        -0.770388        -0.243112
 C         1.254769        -0.041890        -0.095758
 C         1.809384         1.195899        -0.916312
 C         3.163164         0.760354        -0.374671
 C         4.252556         0.548157        -1.400782
 O         3.386864        -0.522721        -1.880592
 C         2.672307        -0.640936        -0.515348
 O         3.085214         1.118777         1.068015
 C         1.820310         0.341512         1.357228
 H        -0.011981        -1.426046        -1.128356
 H        -0.222459        -1.271883         0.745464
 H        -0.878409        -0.049047        -0.531332
 H         1.706565         1.270528        -1.997779
 H         1.577215         2.274715        -0.593849
 H         4.322321         1.211927        -2.174527
 H         5.263554         0.260832        -0.888617
 H         3.160833        -1.561216         0.002091
 H         2.006527        -0.576030         1.921283
 H         1.006526         1.040142         1.742917
