19
Iteration:  1969charge 0 multiplicity 1
 C         0.002687        -0.731892        -0.258490
 C         1.310766         0.026146        -0.103075
 C         1.725070         1.316525        -0.947736
 C         3.106046         0.860941        -0.420462
 C         4.211838         0.459903        -1.292789
 O         3.459643        -0.668247        -1.799897
 C         2.715266        -0.646418        -0.514967
 O         3.034475         1.130254         0.996250
 C         1.827245         0.309570         1.325414
 H        -0.897170        -0.055507        -0.034967
 H        -0.023417        -1.125152        -1.260047
 H         0.003642        -1.551676         0.448065
 H         1.543694         1.054086        -2.036499
 H         1.333496         2.438042        -0.713334
 H         4.343306         1.065953        -2.228070
 H         5.275127         0.230776        -0.979671
 H         3.183283        -1.434379         0.185797
 H         2.082370        -0.619546         1.827106
 H         1.215695         0.891297         2.025406
