19
Iteration:  4854
 C        -0.047481        -0.731621        -0.092691
 C         1.265269        -0.085356        -0.187275
 C         1.851237         1.150549        -0.990454
 C         3.214129         0.733784        -0.360067
 C         4.345591         0.547686        -1.342361
 O         3.380645        -0.583723        -1.834644
 C         2.755701        -0.659189        -0.549563
 O         3.018658         1.141666         1.042451
 C         1.659067         0.474284         1.262651
 H        -0.659662        -0.069884         0.617162
 H        -0.583039        -0.890017        -1.076885
 H         0.061140        -1.747050         0.282106
 H         1.817927         0.893727        -2.007487
 H         1.507777         2.126037        -0.769475
 H         4.482724         1.385918        -2.029288
 H         5.326318         0.142751        -1.002716
 H         3.029873        -1.529613         0.018229
 H         1.877861        -0.293801         2.044215
 H         0.981132         1.314850         1.543962
