19
Iteration:  3178charge 0 multiplicity 1
 C        -0.089277        -0.675048        -0.109319
 C         1.269628        -0.056854        -0.188858
 C         1.653923         1.202009        -0.911393
 C         3.045981         0.817526        -0.436681
 C         4.287697         0.563654        -1.345993
 O         3.543839        -0.683146        -1.753485
 C         2.749843        -0.644092        -0.533843
 O         3.143447         1.087001         0.963263
 C         1.747567         0.401511         1.248396
 H        -0.805565         0.149035        -0.270962
 H        -0.120694        -1.370850        -0.995002
 H        -0.385162        -1.409988         0.699045
 H         1.723980         1.257261        -1.979051
 H         1.211137         2.128107        -0.642314
 H         4.594021         1.269988        -2.086917
 H         5.312569         0.318916        -0.731835
 H         3.170000        -1.382802         0.181259
 H         2.001753        -0.415513         1.937023
 H         1.074827         1.106800         1.690965
