19
Iteration:   194
 C         0.023913        -0.642856        -0.148580
 C         1.383098        -0.086610        -0.167777
 C         1.773529         1.257825        -0.470717
 C         3.242028         0.718671        -0.175001
 C         4.037772         0.898311        -1.460063
 O         3.057090         0.024628        -2.201169
 C         2.723657        -0.576221        -0.917669
 O         3.289171         0.491110         1.211762
 C         1.938432        -0.074440         1.323391
 H        -0.815542         0.021438         0.004664
 H        -0.233297        -1.009853        -1.169170
 H         0.050172        -1.546630         0.656987
 H         1.681590         1.609840        -1.490891
 H         1.417459         2.059120         0.232885
 H         4.106102         1.953900        -1.797775
 H         5.059784         0.282228        -1.339601
 H         3.188205        -1.612381        -0.839939
 H         1.966335        -1.104467         1.682124
 H         1.322823         0.580563         1.911292
