19
Iteration:  1296
 C        -0.066763        -0.708768        -0.309170
 C         1.267402        -0.095748        -0.070376
 C         1.734543         1.164195        -0.895068
 C         3.183081         0.771229        -0.315970
 C         4.230605         0.500818        -1.409045
 O         3.406051        -0.525056        -1.864749
 C         2.740736        -0.608971        -0.521600
 O         3.063331         1.182063         1.012625
 C         1.841750         0.330863         1.359023
 H        -0.323982        -0.871071        -1.370732
 H        -0.220339        -1.764225         0.200435
 H        -0.984107        -0.200673         0.063585
 H         1.603198         1.306647        -1.990023
 H         1.437617         2.186054        -0.313932
 H         4.689925         1.199532        -2.180874
 H         5.239032         0.047502        -0.955385
 H         3.236319        -1.457108        -0.041575
 H         2.218758        -0.591665         1.837588
 H         1.169726         0.817232         2.159605
