19
Iteration:  3232charge 0 multiplicity 1
 C        -0.018989        -0.745730        -0.254081
 C         1.379434        -0.065075        -0.163493
 C         1.804224         1.190959        -0.929456
 C         3.205428         0.792377        -0.352268
 C         4.244638         0.424823        -1.374368
 O         3.284135        -0.590207        -1.824558
 C         2.815520        -0.709881        -0.420823
 O         2.987779         1.211043         1.044633
 C         1.754495         0.516067         1.236698
 H        -0.597627        -0.201143         0.508019
 H        -0.316124        -0.787927        -1.330970
 H         0.223496        -1.814559         0.080657
 H         1.651754         0.849969        -1.936792
 H         1.563766         2.158781        -0.614246
 H         4.350893         1.267214        -1.975205
 H         5.201205        -0.066962        -0.964396
 H         3.146445        -1.616523         0.070641
 H         2.055188        -0.176274         2.001798
 H         0.902173         1.038956         1.562148
