19
Iteration:  2694charge 0 multiplicity 1
 C        -0.117671        -0.760151        -0.131773
 C         1.347604        -0.085051        -0.195424
 C         1.817087         1.171803        -1.005974
 C         3.184094         0.798392        -0.274693
 C         4.236628         0.516145        -1.332648
 O         3.448074        -0.575865        -1.891846
 C         2.757908        -0.758800        -0.580484
 O         3.036136         1.141249         1.106101
 C         1.713095         0.502480         1.258533
 H        -0.550501        -0.361239         0.771169
 H        -0.665172        -0.628373        -1.071704
 H        -0.032160        -1.815923         0.142130
 H         1.855836         1.044844        -2.133130
 H         1.425587         2.290709        -0.787793
 H         4.321659         1.376045        -1.974577
 H         5.360971         0.260201        -1.040845
 H         3.253561        -1.528731         0.027529
 H         1.809016        -0.147158         2.115801
 H         0.963922         1.264444         1.501121
