19
Iteration:   516charge 0 multiplicity 1
 C        -0.064286        -0.693683        -0.282645
 C         1.315909        -0.076070        -0.189211
 C         1.764629         1.353116        -0.543877
 C         3.135491         0.797961        -0.260921
 C         4.047200         0.773054        -1.481735
 O         3.313938        -0.305801        -2.071858
 C         2.684231        -0.643134        -0.702528
 O         3.221872         0.729074         1.152867
 C         2.019966         0.086175         1.382797
 H         0.111607        -1.831925        -0.371812
 H        -0.812123        -0.509012         0.549844
 H        -0.638793        -0.436604        -1.144790
 H         1.464958         1.589710        -1.528963
 H         1.444356         2.140211         0.053256
 H         3.928306         1.652528        -2.123510
 H         5.108210         0.478407        -1.383613
 H         3.256860        -1.495943        -0.273622
 H         2.192549        -0.837545         1.824500
 H         1.291998         0.727415         1.866815
