19
Iteration:  2587charge 0 multiplicity 1
 C        -0.093495        -0.702434        -0.204697
 C         1.380041        -0.125210        -0.111786
 C         1.823043         1.190108        -0.942833
 C         3.173615         0.780285        -0.318356
 C         4.189100         0.579373        -1.433083
 O         3.415877        -0.626018        -1.840887
 C         2.792973        -0.650215        -0.495561
 O         3.076798         1.058917         1.050151
 C         1.683430         0.480846         1.286441
 H        -0.769686         0.027218        -0.531429
 H        -0.153654        -1.441865        -1.081802
 H        -0.353039        -1.371716         0.716617
 H         1.834732         0.987893        -2.018268
 H         1.346665         2.125294        -0.683728
 H         4.319640         1.411701        -2.133727
 H         5.194574         0.426553        -0.935479
 H         3.242799        -1.464140         0.086443
 H         1.687403        -0.278316         2.193100
 H         1.140205         1.434057         1.509721
