19
Iteration:   362
 C         0.044474        -0.638448        -0.281218
 C         1.402081        -0.069774        -0.067438
 C         1.787207         1.307260        -0.524267
 C         3.210611         0.791572        -0.258454
 C         4.077043         0.684756        -1.471429
 O         3.091576        -0.124109        -2.133755
 C         2.679743        -0.591979        -0.792730
 O         3.141669         0.846429         1.216986
 C         2.013974        -0.173283         1.335866
 H        -0.462639        -0.273662        -1.218357
 H         0.119740        -1.754686        -0.374691
 H        -0.521532        -0.366622         0.592055
 H         1.694451         1.457145        -1.580826
 H         1.410445         2.044610         0.066064
 H         4.238129         1.659901        -2.006399
 H         5.079419         0.087620        -1.309314
 H         3.102043        -1.592117        -0.629834
 H         2.463875        -1.132490         1.528118
 H         1.308996         0.024306         2.146155
