19
Iteration:  4799charge 0 multiplicity 1
 C         0.016212        -0.774766        -0.374541
 C         1.211989         0.028198        -0.046596
 C         1.757944         1.208347        -0.919845
 C         3.155891         0.836435        -0.412416
 C         4.204244         0.398713        -1.468106
 O         3.406650        -0.659322        -1.804876
 C         2.816981        -0.631226        -0.415425
 O         3.077766         1.188284         1.055160
 C         1.765881         0.431566         1.349063
 H        -0.977427        -0.226804        -0.284352
 H        -0.015401        -1.048938        -1.462042
 H        -0.142227        -1.581489         0.335113
 H         1.661023         1.174849        -1.942903
 H         1.388630         2.140365        -0.531652
 H         4.368377         1.081800        -2.270673
 H         5.168039         0.168451        -0.985552
 H         3.219423        -1.353166         0.285383
 H         1.926891        -0.417059         2.044109
 H         1.256566         1.055001         2.093060
