19
Iteration:   299charge 0 multiplicity 1
 C        -0.007839        -0.708481        -0.200651
 C         1.346705        -0.111096        -0.115491
 C         1.738074         1.334885        -0.546012
 C         3.160945         0.691191        -0.227034
 C         4.128704         0.869309        -1.490572
 O         3.219420        -0.098415        -2.182974
 C         2.614392        -0.592580        -0.853640
 O         3.279977         0.566869         1.181931
 C         2.000172         0.030589         1.445494
 H        -0.027522        -1.728038        -0.682539
 H        -0.586318        -0.818876         0.717820
 H        -0.601284        -0.080759        -0.773542
 H         1.608640         1.632290        -1.588254
 H         1.285664         2.064858         0.159714
 H         4.032033         1.925666        -1.874229
 H         5.121243         0.613883        -1.481694
 H         2.972410        -1.591349        -0.746668
 H         1.963826        -0.956785         1.985822
 H         1.227594         0.695377         1.979109
