19
Iteration:  3214charge 0 multiplicity 1
 C         0.012737        -0.745922        -0.175808
 C         1.291911        -0.089188        -0.118807
 C         1.806070         1.151005        -1.008338
 C         3.172614         0.761141        -0.343614
 C         4.308426         0.448552        -1.341000
 O         3.403011        -0.592218        -1.885038
 C         2.656599        -0.681313        -0.530896
 O         2.986054         1.330696         1.010820
 C         1.793801         0.393354         1.360809
 H        -0.796974        -0.088502         0.151398
 H        -0.192804        -0.681286        -1.273223
 H        -0.105685        -1.648375         0.385012
 H         1.994445         1.038279        -2.063479
 H         1.304638         2.120873        -0.655455
 H         4.641131         1.125462        -2.222973
 H         5.131568        -0.110915        -0.758655
 H         2.977244        -1.506458         0.172165
 H         2.010284        -0.524932         2.006664
 H         1.056854         1.036990         1.963679
