19
Iteration:  3235charge 0 multiplicity 1
 C         0.005642        -0.767627        -0.257188
 C         1.365699        -0.081753        -0.172158
 C         1.789763         1.212074        -0.926068
 C         3.200364         0.779824        -0.377767
 C         4.233697         0.431028        -1.388853
 O         3.289138        -0.588237        -1.820437
 C         2.818210        -0.707691        -0.374241
 O         3.017908         1.181997         1.049385
 C         1.745661         0.535530         1.215443
 H        -0.612801        -0.235285         0.449737
 H        -0.342039        -0.638837        -1.318319
 H         0.185610        -1.790446         0.093583
 H         1.737675         0.936821        -1.922134
 H         1.521451         2.235469        -0.586337
 H         4.302578         1.358457        -2.021819
 H         5.217398        -0.068523        -0.971518
 H         3.122871        -1.598902         0.224685
 H         1.956544        -0.186730         2.040355
 H         0.840627         1.094955         1.547130
