19
Iteration:  2923charge 0 multiplicity 1
 C        -0.003731        -0.838355        -0.285035
 C         1.358773        -0.106267        -0.070201
 C         1.794712         1.160616        -0.927609
 C         3.180803         0.750909        -0.266879
 C         4.181606         0.544500        -1.321415
 O         3.308612        -0.527606        -1.872712
 C         2.782422        -0.646231        -0.467501
 O         3.112834         1.070858         0.983670
 C         1.725072         0.612203         1.266976
 H        -0.907014        -0.266692         0.029335
 H        -0.203822        -1.016225        -1.357284
 H        -0.123427        -1.913158         0.036913
 H         1.751268         0.871744        -1.916108
 H         1.472994         2.117169        -0.618280
 H         4.439080         1.312829        -2.051156
 H         5.110879         0.001112        -0.978412
 H         3.337652        -1.459057        -0.019712
 H         1.867368        -0.037993         2.205755
 H         1.029868         1.393485         1.584748
