19
Iteration:  2877
 C        -0.025984        -0.690917        -0.169164
 C         1.299216        -0.057408        -0.131117
 C         1.797500         1.289895        -0.969957
 C         3.104778         0.866326        -0.388295
 C         4.215125         0.602656        -1.356377
 O         3.465699        -0.732746        -1.732287
 C         2.770711        -0.685130        -0.509586
 O         2.997799         1.158510         0.985399
 C         1.821009         0.287639         1.241094
 H        -0.854568        -0.340364         0.553600
 H        -0.448419        -0.631418        -1.200307
 H        -0.006787        -1.765574        -0.116481
 H         1.727082         1.193527        -2.009198
 H         1.449994         2.179832        -0.570481
 H         4.192449         1.295935        -2.296638
 H         5.249958         0.469149        -0.980933
 H         3.235988        -1.376039         0.196386
 H         1.945844        -0.629193         1.834927
 H         1.060304         0.855441         1.771527
