19
Iteration:  3261
 C        -0.008929        -0.820150        -0.309976
 C         1.284495        -0.006856        -0.142464
 C         1.763485         1.217296        -0.920295
 C         3.169838         0.870449        -0.351018
 C         4.173753         0.509292        -1.433791
 O         3.436179        -0.762485        -1.745000
 C         2.740417        -0.609655        -0.554897
 O         3.159261         1.043252         1.103758
 C         1.715278         0.604205         1.317762
 H        -0.876491        -0.537753         0.339796
 H        -0.334315        -0.720250        -1.338987
 H         0.356782        -1.773331         0.006596
 H         1.662107         0.937220        -2.060638
 H         1.365167         2.249249        -0.652178
 H         4.080935         1.277378        -2.267002
 H         5.146994         0.307237        -1.113796
 H         3.002219        -1.478390         0.108219
 H         1.757858         0.002137         2.269307
 H         1.012340         1.483852         1.540116
