19
Iteration:  2865
 C        -0.065959        -0.758717        -0.195119
 C         1.312698        -0.018690        -0.223419
 C         1.716195         1.284595        -0.972398
 C         3.098841         0.778218        -0.447061
 C         4.293009         0.636911        -1.409959
 O         3.496679        -0.700297        -1.718159
 C         2.702199        -0.591514        -0.457660
 O         2.993604         1.122050         1.051749
 C         1.838323         0.275565         1.281843
 H        -0.586593        -0.086335         0.611416
 H        -0.637233        -0.638831        -1.133279
 H         0.103266        -1.729200         0.271954
 H         1.516874         1.142760        -2.035924
 H         1.664669         2.296206        -0.757313
 H         4.554400         1.113627        -2.492945
 H         5.195573         0.373070        -0.825801
 H         2.958419        -1.380571         0.251819
 H         2.204591        -0.597884         1.810057
 H         1.189978         0.901888         1.877637
