19
Iteration:  3617charge 0 multiplicity 1
 C        -0.061786        -0.690394        -0.116679
 C         1.374666        -0.097619        -0.227067
 C         1.743159         1.171343        -0.991141
 C         3.198619         0.754145        -0.355833
 C         4.284145         0.552819        -1.319839
 O         3.388866        -0.591375        -1.804552
 C         2.719531        -0.682954        -0.512904
 O         3.026682         1.129300         1.076446
 C         1.769500         0.440155         1.190480
 H        -0.775887        -0.413796         0.545606
 H        -0.550680        -0.722451        -1.094583
 H         0.198009        -1.690446         0.147310
 H         1.875316         1.014536        -2.140629
 H         1.284103         2.111920        -0.639613
 H         4.466615         1.346014        -2.006970
 H         5.298972         0.095360        -0.954257
 H         3.160136        -1.307060         0.230652
 H         1.841555        -0.197227         2.103186
 H         0.972871         1.206984         1.284386
