19
Iteration:  1501
 C         0.030133        -0.698895        -0.232334
 C         1.352196        -0.096518        -0.164017
 C         1.673659         1.182305        -0.930129
 C         3.115359         0.792317        -0.377982
 C         4.300960         0.469139        -1.293769
 O         3.347206        -0.503379        -1.876855
 C         2.675862        -0.665098        -0.515027
 O         3.064158         1.182213         1.055151
 C         1.854039         0.339114         1.274959
 H        -0.263717        -0.875790        -1.319102
 H        -0.053942        -1.703045         0.212909
 H        -0.641321        -0.014348         0.439562
 H         1.596357         1.231788        -2.018454
 H         1.399067         2.062956        -0.310770
 H         4.593873         1.080124        -2.095652
 H         5.269717         0.062754        -0.806131
 H         3.238818        -1.528760         0.006101
 H         1.976087        -0.526197         1.923240
 H         1.027862         0.908716         1.800840
