19
Iteration:   812charge 0 multiplicity 1
 C         0.022111        -0.704111        -0.298306
 C         1.372960        -0.087466        -0.128721
 C         1.711287         1.280675        -0.732334
 C         3.121674         0.754352        -0.277684
 C         4.245704         0.544672        -1.419588
 O         3.270854        -0.368591        -1.966808
 C         2.672237        -0.601557        -0.633224
 O         3.077291         1.049445         1.078263
 C         1.939755         0.157612         1.375471
 H        -0.065753        -1.351765        -1.159636
 H        -0.319170        -1.320022         0.571154
 H        -0.703760        -0.008748        -0.391655
 H         1.714062         1.425386        -1.803913
 H         1.427772         2.117848        -0.134948
 H         4.452782         1.234270        -2.227938
 H         5.192656         0.015631        -1.046320
 H         2.975158        -1.598625        -0.315850
 H         2.251170        -0.797998         1.878392
 H         1.226154         0.690231         2.047682
