19
Iteration:  3375
 C        -0.043579        -0.778631        -0.284734
 C         1.226368        -0.001797        -0.227561
 C         1.705327         1.286789        -0.899258
 C         3.152346         0.772252        -0.350359
 C         4.246152         0.553385        -1.432886
 O         3.486377        -0.709438        -1.697096
 C         2.730211        -0.706001        -0.550096
 O         3.191646         1.074532         0.997098
 C         1.716481         0.524236         1.338561
 H        -0.840330        -0.040964        -0.007116
 H        -0.223288        -1.434546        -1.243650
 H         0.078779        -1.421240         0.674556
 H         1.619123         1.203067        -1.933725
 H         1.179930         2.201111        -0.429748
 H         4.220372         1.108542        -2.254546
 H         5.207657         0.325799        -0.984228
 H         2.948683        -1.441464         0.205220
 H         1.801279        -0.091219         2.251777
 H         1.122100         1.362299         1.624411
