19
Iteration:  3162charge 0 multiplicity 1
 C        -0.094888        -0.707517        -0.180289
 C         1.321560        -0.117622        -0.124613
 C         1.719569         1.270562        -0.990382
 C         3.183697         0.823734        -0.367669
 C         4.190226         0.558615        -1.421475
 O         3.617954        -0.690714        -1.859748
 C         2.714220        -0.657003        -0.459749
 O         3.046092         1.059679         1.073962
 C         1.758792         0.450085         1.267077
 H        -0.713553         0.229886        -0.173466
 H        -0.321001        -1.472132        -0.928464
 H        -0.245603        -1.039180         0.839773
 H         1.459665         0.974265        -2.040122
 H         1.303530         2.182401        -0.453905
 H         4.169391         1.225119        -2.341105
 H         5.132377         0.420429        -1.035025
 H         3.084505        -1.414656         0.254370
 H         1.740018        -0.311599         2.061813
 H         1.013402         1.265499         1.540893
