19
Iteration:  3263charge 0 multiplicity 1
 C        -0.000994        -0.815920        -0.313331
 C         1.274549         0.000535        -0.141750
 C         1.749642         1.230994        -0.906101
 C         3.164892         0.861791        -0.367977
 C         4.167487         0.511483        -1.435007
 O         3.455508        -0.763835        -1.756980
 C         2.739029        -0.616996        -0.536479
 O         3.155686         1.039906         1.108729
 C         1.729241         0.611573         1.321400
 H        -0.923099        -0.569373         0.286658
 H        -0.392458        -0.728375        -1.333113
 H         0.344976        -1.818764         0.049949
 H         1.678274         0.929066        -2.015747
 H         1.376025         2.263115        -0.764023
 H         4.105659         1.247580        -2.200017
 H         5.172390         0.305244        -1.159352
 H         2.932558        -1.457443         0.129464
 H         1.778266        -0.004057         2.229332
 H         1.023612         1.429934         1.535643
