19
Iteration:  4840
 C        -0.031851        -0.736744        -0.161545
 C         1.391469        -0.061358        -0.280784
 C         1.787508         1.184702        -0.981243
 C         3.128640         0.768361        -0.250990
 C         4.145514         0.540201        -1.358005
 O         3.453809        -0.595425        -1.833759
 C         2.709731        -0.761728        -0.454830
 O         3.118210         1.067426         1.065283
 C         1.728632         0.589996         1.213424
 H        -0.666817        -0.230569         0.532827
 H        -0.567266        -0.911408        -1.105602
 H         0.182522        -1.716871         0.353572
 H         1.917290         1.230628        -2.032340
 H         1.234470         2.119835        -0.665043
 H         4.274469         1.292816        -2.259816
 H         5.089962         0.220680        -0.937805
 H         3.165253        -1.647327         0.081183
 H         1.676263        -0.189119         1.938596
 H         0.985351         1.416778         1.507173
