19
Iteration:  2567charge 0 multiplicity 1
 C        -0.086754        -0.744427        -0.146501
 C         1.247565        -0.018158        -0.195870
 C         1.715066         1.227146        -0.965796
 C         3.108390         0.758737        -0.402658
 C         4.323486         0.569151        -1.348894
 O         3.505930        -0.612233        -1.795761
 C         2.730379        -0.678415        -0.520698
 O         3.098586         1.046408         1.080839
 C         1.767741         0.485797         1.208911
 H        -0.869073         0.004994        -0.163675
 H        -0.291247        -1.491000        -0.939016
 H         0.032135        -1.313498         0.829559
 H         1.587509         1.153666        -1.983761
 H         1.485191         2.121224        -0.520705
 H         4.260463         1.249488        -2.241654
 H         5.318850         0.273395        -1.055589
 H         3.123555        -1.403296         0.212438
 H         1.809644        -0.453037         1.934429
 H         0.959364         1.133517         1.652817
