19
Iteration:   698
 C        -0.056598        -0.679354        -0.239863
 C         1.353303        -0.123041        -0.141916
 C         1.662968         1.233165        -0.796061
 C         3.169026         0.720861        -0.249126
 C         4.235813         0.615063        -1.311893
 O         3.185092        -0.264654        -2.031290
 C         2.759072        -0.623811        -0.712838
 O         3.147152         0.968099         1.125693
 C         1.984565         0.171246         1.335356
 H        -0.361241        -0.528414         0.802502
 H        -0.689569        -0.154133        -0.943990
 H        -0.118104        -1.878058        -0.545700
 H         1.623191         1.253543        -1.920292
 H         1.204655         2.227753        -0.366881
 H         4.668796         1.588155        -1.750265
 H         5.042706        -0.223523        -1.019011
 H         3.114542        -1.557858        -0.300154
 H         2.308968        -0.883907         1.662983
 H         1.342346         0.562088         2.091762
