19
Iteration:  4714charge 0 multiplicity 1
 C         0.003086        -0.733029        -0.060704
 C         1.283118         0.003619        -0.217510
 C         1.715638         1.274208        -1.032217
 C         3.078203         0.721874        -0.395367
 C         4.207037         0.586404        -1.334576
 O         3.538461        -0.678351        -1.776523
 C         2.708489        -0.700715        -0.524698
 O         3.101722         0.988191         1.099794
 C         1.749336         0.517182         1.158072
 H        -0.676538         0.058022         0.365272
 H        -0.346268        -0.939101        -1.105898
 H         0.123059        -1.579505         0.550466
 H         1.624954         1.251161        -2.209464
 H         1.176522         2.183707        -0.607045
 H         4.294738         1.416289        -1.990174
 H         5.276503         0.311744        -0.928017
 H         3.238315        -1.417985         0.156400
 H         1.777764        -0.215271         2.037264
 H         1.087624         1.349281         1.272738
