19
Iteration:  2658charge 0 multiplicity 1
 C         0.061138        -0.797725        -0.275404
 C         1.317841         0.033528        -0.165969
 C         1.635783         1.318598        -0.926705
 C         3.133595         0.840174        -0.358029
 C         4.281650         0.412768        -1.292650
 O         3.416605        -0.679767        -1.785650
 C         2.705454        -0.607104        -0.564843
 O         3.119724         1.099483         1.041422
 C         1.757613         0.439124         1.304370
 H        -0.887206        -0.363741         0.274976
 H        -0.475744        -0.911033        -1.219547
 H         0.366479        -1.759328         0.092746
 H         1.488755         1.060356        -2.040055
 H         1.280802         2.321632        -0.569799
 H         4.133432         1.100622        -2.227234
 H         5.337600         0.197538        -1.026255
 H         3.156694        -1.361675         0.127736
 H         2.037956        -0.480355         2.040712
 H         1.020866         1.229877         1.637183
