19
Iteration:  1749charge 0 multiplicity 1
 C        -0.089395        -0.779609        -0.254185
 C         1.317848        -0.014431        -0.127673
 C         1.782501         1.266077        -0.964568
 C         3.138457         0.819149        -0.356599
 C         4.306550         0.484815        -1.287534
 O         3.377183        -0.606977        -1.786896
 C         2.686316        -0.608983        -0.525380
 O         3.061493         1.121194         0.957687
 C         1.836064         0.367513         1.307481
 H        -0.935343        -0.322376        -0.799942
 H         0.132251        -1.698686        -0.701252
 H        -0.355567        -1.071445         0.731180
 H         1.537494         1.194027        -2.051026
 H         1.555390         2.302141        -0.480874
 H         4.385669         1.150368        -2.228638
 H         5.230456         0.170094        -0.824397
 H         2.975843        -1.413750         0.148895
 H         2.258033        -0.512737         1.863451
 H         1.209429         0.985378         1.938668
