19
Iteration:   257charge 0 multiplicity 1
 C        -0.069256        -0.632099        -0.243728
 C         1.383980        -0.137281        -0.156824
 C         1.677612         1.357408        -0.488652
 C         3.198175         0.792298        -0.255266
 C         4.118530         0.770918        -1.437788
 O         3.160057        -0.105383        -2.126600
 C         2.637313        -0.548658        -0.833849
 O         3.217363         0.701713         1.184662
 C         2.117693        -0.209098         1.321369
 H        -0.281271        -1.440929         0.534499
 H        -0.603430         0.303139         0.002281
 H        -0.355690        -1.056505        -1.218556
 H         1.430101         1.840629        -1.467788
 H         1.303782         2.184489         0.313408
 H         4.217309         1.738753        -2.003247
 H         5.048611         0.282753        -1.349089
 H         3.022121        -1.536720        -0.555223
 H         2.591081        -1.204640         1.503166
 H         1.572106         0.049329         2.270925
