19
Iteration:  2710
 C        -0.019577        -0.658838        -0.137884
 C         1.337870        -0.082924        -0.154427
 C         1.748337         1.055906        -0.979616
 C         3.203762         0.694973        -0.307281
 C         4.331919         0.603192        -1.342297
 O         3.406056        -0.538778        -1.843572
 C         2.731392        -0.656753        -0.490022
 O         3.046528         1.158940         1.014262
 C         1.685965         0.429028         1.236669
 H        -0.671544        -0.066569         0.548939
 H        -0.500596        -0.564634        -1.137987
 H        -0.024687        -1.775790        -0.059122
 H         1.821809         0.724834        -1.975857
 H         1.303390         1.931088        -0.656511
 H         4.448766         1.345116        -2.204980
 H         5.208463         0.161588        -0.924528
 H         3.019171        -1.666918        -0.161757
 H         1.734052        -0.337117         2.072367
 H         0.941627         1.136516         1.696756
