19
Iteration:  4580
 C        -0.036749        -0.688341        -0.129629
 C         1.306536        -0.123398        -0.290154
 C         1.778816         1.152407        -0.979784
 C         3.147468         0.778169        -0.344754
 C         4.315147         0.583067        -1.300567
 O         3.364450        -0.600572        -1.815669
 C         2.763574        -0.682335        -0.529947
 O         3.064114         1.135419         1.054163
 C         1.733968         0.424053         1.252646
 H        -0.731606         0.151712        -0.009508
 H        -0.404269        -1.399904        -0.875801
 H        -0.194342        -1.366227         0.730184
 H         1.721189         1.070434        -2.034810
 H         1.403505         2.159063        -0.525959
 H         4.424176         1.265087        -2.189542
 H         5.306434         0.212040        -0.908863
 H         3.123376        -1.489818         0.133137
 H         2.062071        -0.312784         1.990977
 H         1.081204         1.249245         1.566817
