19
Iteration:  1194
 C        -0.032436        -0.681595        -0.217004
 C         1.350590        -0.077868        -0.158111
 C         1.730465         1.161748        -0.928705
 C         3.161123         0.778298        -0.347645
 C         4.263306         0.597129        -1.345469
 O         3.368024        -0.539188        -1.837962
 C         2.737524        -0.631925        -0.528556
 O         3.037339         1.082382         0.984135
 C         1.842643         0.304166         1.366896
 H        -0.237311        -0.819438        -1.281761
 H        -0.228841        -1.616351         0.204953
 H        -0.734346         0.043214         0.211192
 H         1.669881         1.057899        -2.050851
 H         1.250762         2.181777        -0.566346
 H         4.334823         1.412574        -2.043744
 H         5.288884         0.116477        -1.063404
 H         3.054787        -1.449684         0.125635
 H         2.100489        -0.590160         2.004954
 H         1.131118         0.994617         1.852032
