19
Iteration:  4354
 C         0.039933        -0.741097        -0.323292
 C         1.321673        -0.087484        -0.004916
 C         1.762959         1.124005        -0.917456
 C         3.159707         0.808218        -0.307888
 C         4.310588         0.532472        -1.409541
 O         3.395400        -0.631043        -1.939081
 C         2.709951        -0.662898        -0.435253
 O         3.014326         1.157357         1.027632
 C         1.722606         0.520719         1.363993
 H        -0.795356        -0.186084         0.210382
 H        -0.167924        -0.834423        -1.429072
 H        -0.040567        -1.759632         0.025836
 H         1.690585         0.817421        -1.904410
 H         1.227884         2.068957        -0.778354
 H         4.504025         1.310434        -2.103007
 H         5.273316        -0.047436        -1.154106
 H         3.281374        -1.524879        -0.090044
 H         1.921906        -0.078572         2.301285
 H         0.973155         1.308961         1.748358
