19
Iteration:  3165charge 0 multiplicity 1
 C        -0.081089        -0.709569        -0.167632
 C         1.336467        -0.137019        -0.133063
 C         1.691842         1.290700        -0.980017
 C         3.154106         0.837840        -0.379106
 C         4.206771         0.568217        -1.419751
 O         3.620702        -0.694745        -1.852915
 C         2.687383        -0.652154        -0.438749
 O         3.079087         1.053407         1.056148
 C         1.742852         0.452669         1.257661
 H        -0.775497         0.212800        -0.214083
 H        -0.377633        -1.397750        -0.989911
 H        -0.317810        -1.037676         0.900013
 H         1.476669         0.979169        -2.034830
 H         1.341758         2.174085        -0.526081
 H         4.213886         1.192958        -2.303077
 H         5.247541         0.355933        -0.895846
 H         3.118379        -1.426088         0.214298
 H         1.809311        -0.326458         1.995505
 H         0.972281         1.141142         1.557146
