19
Iteration:  1433
 C        -0.004619        -0.697973        -0.247106
 C         1.368154        -0.086598        -0.107550
 C         1.805124         1.225578        -0.894801
 C         3.144806         0.763329        -0.367489
 C         4.191709         0.630992        -1.381170
 O         3.366226        -0.641257        -1.870877
 C         2.756807        -0.729596        -0.521879
 O         3.069942         1.085488         1.087729
 C         1.743146         0.437344         1.288097
 H        -0.251724        -0.460885        -1.332154
 H         0.080776        -1.805391        -0.204431
 H        -0.729868        -0.293280         0.545840
 H         1.572339         1.176986        -1.947146
 H         1.531997         2.134141        -0.496538
 H         4.222677         1.426278        -2.153819
 H         5.209285         0.387975        -1.124686
 H         3.220603        -1.427976         0.197341
 H         1.837058        -0.433971         1.923246
 H         1.021161         1.088230         1.736588
