19
Iteration:   551
 C        -0.048321        -0.764517        -0.118200
 C         1.314566        -0.025891        -0.128064
 C         1.804993         1.386155        -0.665905
 C         3.164493         0.835945        -0.274484
 C         4.114472         0.776038        -1.475812
 O         3.333632        -0.309186        -2.065336
 C         2.661153        -0.552493        -0.767708
 O         3.185908         0.664471         1.194027
 C         1.887875         0.051376         1.285914
 H        -0.025793        -1.625394        -0.849990
 H        -0.091702        -1.243489         0.902960
 H        -0.964610        -0.161811        -0.370138
 H         1.772367         1.396419        -1.730794
 H         1.430677         2.248198        -0.221826
 H         4.063230         1.731949        -2.138637
 H         5.190289         0.493802        -1.374913
 H         3.130927        -1.484249        -0.457986
 H         1.944028        -0.812603         1.877104
 H         1.203340         0.712449         1.863568
