19
Iteration:    71
 C        -0.021710        -0.618315        -0.180352
 C         1.384971        -0.198058        -0.075659
 C         1.797818         1.239596        -0.398514
 C         3.141703         0.709881        -0.250116
 C         4.055613         0.963758        -1.369633
 O         3.030203         0.171821        -2.124775
 C         2.728929        -0.574255        -0.983206
 O         3.296043         0.451391         1.082058
 C         2.042004        -0.189699         1.312301
 H        -0.041429        -1.745272         0.102255
 H        -0.755882        -0.195905         0.570075
 H        -0.381796        -0.514311        -1.242443
 H         1.551473         1.626052        -1.431945
 H         1.585098         2.141012         0.286316
 H         4.300068         2.027846        -1.783755
 H         5.042808         0.442378        -1.490875
 H         3.093692        -1.592113        -0.862967
 H         2.208723        -1.143050         1.761954
 H         1.376396         0.408815         1.939305
