19
Iteration:  1432charge 0 multiplicity 1
 C        -0.006392        -0.691942        -0.248373
 C         1.363071        -0.087461        -0.107574
 C         1.804982         1.231089        -0.900443
 C         3.150261         0.762820        -0.369129
 C         4.192588         0.625305        -1.382954
 O         3.366373        -0.640949        -1.878894
 C         2.755204        -0.728771        -0.515383
 O         3.069864         1.089653         1.091409
 C         1.743202         0.436705         1.300188
 H        -0.243638        -0.494903        -1.327523
 H         0.087830        -1.813342        -0.209930
 H        -0.729764        -0.298579         0.532209
 H         1.557138         1.130328        -1.944774
 H         1.531384         2.101849        -0.477616
 H         4.252311         1.455274        -2.167995
 H         5.185569         0.365950        -1.102545
 H         3.256146        -1.390413         0.175070
 H         1.847262        -0.441737         1.918956
 H         0.995314         1.051065         1.719169
