19
Iteration:  1806charge 0 multiplicity 1
 C        -0.111963        -0.710041        -0.204643
 C         1.342208        -0.137726        -0.117134
 C         1.906962         1.148318        -1.001377
 C         3.166871         0.758134        -0.305002
 C         4.207887         0.582881        -1.378964
 O         3.421261        -0.577918        -1.904805
 C         2.743771        -0.741869        -0.440728
 O         3.049576         1.126453         1.065952
 C         1.712739         0.517023         1.270392
 H        -0.855502        -0.051910         0.319868
 H        -0.307655        -0.862480        -1.263814
 H        -0.222591        -1.675337         0.328317
 H         1.752477         1.006175        -2.080611
 H         1.574790         2.195288        -0.630249
 H         4.461904         1.447988        -2.219829
 H         5.177774         0.208884        -1.127176
 H         3.170178        -1.507411         0.217730
 H         1.908976        -0.286965         2.070951
 H         0.940382         1.167899         1.764551
