19
Iteration:  4017
 C         0.026991        -0.800310        -0.267554
 C         1.327552        -0.041936        -0.164194
 C         1.697448         1.289440        -0.922310
 C         3.126944         0.766153        -0.316231
 C         4.225662         0.513336        -1.413746
 O         3.440345        -0.629531        -1.825775
 C         2.675666        -0.675070        -0.503622
 O         3.109073         1.083295         1.055750
 C         1.754126         0.511775         1.330170
 H        -0.872341        -0.229250        -0.020290
 H        -0.019086        -1.082342        -1.326152
 H         0.093715        -1.632931         0.372306
 H         1.766045         1.100244        -2.077059
 H         1.367372         2.195739        -0.441313
 H         4.503285         1.350131        -2.104975
 H         5.120459         0.065708        -1.054274
 H         3.034642        -1.497951         0.189735
 H         1.771331        -0.269653         2.047442
 H         1.185730         1.399068         1.655451
