19
Iteration:  2737
 C        -0.092554        -0.720633        -0.287223
 C         1.335388        -0.098397        -0.166728
 C         1.725410         1.250816        -0.939103
 C         3.080706         0.773441        -0.347193
 C         4.177705         0.528547        -1.338834
 O         3.471140        -0.669259        -1.812269
 C         2.771074        -0.634526        -0.536342
 O         3.075174         1.197335         0.998449
 C         1.847143         0.372553         1.369508
 H        -0.780143         0.036030         0.137074
 H        -0.286023        -0.936258        -1.354622
 H        -0.211800        -1.682426         0.215908
 H         1.791330         0.993871        -2.024756
 H         1.317990         2.253799        -0.495853
 H         4.477552         1.194340        -2.102030
 H         5.086931         0.134829        -0.731824
 H         3.309351        -1.360386         0.087720
 H         2.061672        -0.356949         2.222269
 H         1.108665         1.033696         1.844272
