19
Iteration:  1178charge 0 multiplicity 1
 C        -0.099742        -0.682332        -0.280636
 C         1.279994        -0.089721        -0.076918
 C         1.747762         1.272632        -0.877651
 C         3.096827         0.876282        -0.345259
 C         4.179474         0.536506        -1.380006
 O         3.468886        -0.629265        -1.895039
 C         2.735535        -0.657590        -0.574449
 O         3.105083         1.181859         1.109149
 C         1.878331         0.250467         1.269649
 H        -0.233776        -1.314891        -1.188035
 H        -0.342560        -1.506154         0.539313
 H        -0.962403        -0.041947         0.034527
 H         1.637948         1.105352        -1.929626
 H         1.431561         2.222593        -0.672848
 H         4.603712         1.145240        -2.248898
 H         5.001735         0.318749        -0.789329
 H         3.180314        -1.456006         0.101618
 H         2.274761        -0.633445         1.759087
 H         1.163326         0.671433         1.979635
