19
Iteration:  2715charge 0 multiplicity 1
 C        -0.031124        -0.657890        -0.169803
 C         1.357544        -0.069522        -0.120251
 C         1.737992         1.034599        -0.977783
 C         3.192749         0.763203        -0.349457
 C         4.339424         0.584764        -1.328333
 O         3.392193        -0.535070        -1.848108
 C         2.711128        -0.705602        -0.453381
 O         3.029030         1.132752         1.009394
 C         1.715942         0.438189         1.225500
 H        -0.662247        -0.084402         0.538637
 H        -0.333338        -0.530164        -1.219158
 H        -0.089637        -1.719855         0.038705
 H         1.753484         0.812586        -2.088442
 H         1.351398         2.055539        -0.577983
 H         4.420111         1.266019        -2.144871
 H         5.363020         0.393367        -0.839896
 H         3.068800        -1.678246        -0.100522
 H         1.884208        -0.375491         1.996011
 H         0.974944         1.067960         1.728000
