19
Iteration:  4710
 C         0.013745        -0.739988        -0.078760
 C         1.295905        -0.016080        -0.237148
 C         1.707415         1.295708        -1.031036
 C         3.093706         0.731505        -0.368690
 C         4.243485         0.602479        -1.300582
 O         3.501484        -0.713087        -1.777020
 C         2.695852        -0.697779        -0.511253
 O         3.090865         1.024102         1.066689
 C         1.783868         0.483917         1.148392
 H        -0.707138        -0.008487         0.370025
 H        -0.463806        -0.837274        -1.067928
 H         0.151299        -1.622193         0.625153
 H         1.692651         1.234061        -2.023889
 H         1.259888         2.190149        -0.624942
 H         4.247144         1.468673        -1.993637
 H         5.232571         0.395014        -1.036958
 H         3.193170        -1.436224         0.054798
 H         1.575573        -0.238132         2.029457
 H         1.093275         1.370666         1.410108
