19
Iteration:  2712
 C        -0.021509        -0.660805        -0.149817
 C         1.348379        -0.071494        -0.140779
 C         1.738600         1.044748        -0.974971
 C         3.200815         0.721783        -0.326655
 C         4.342147         0.595596        -1.334129
 O         3.397604        -0.536226        -1.845214
 C         2.720286        -0.674477        -0.470260
 O         3.040191         1.147575         1.010400
 C         1.696218         0.433232         1.222885
 H        -0.682908        -0.038641         0.572711
 H        -0.421204        -0.556604        -1.183748
 H        -0.051951        -1.734730        -0.041622
 H         1.808799         0.737186        -2.035405
 H         1.346593         1.925213        -0.613904
 H         4.433179         1.317674        -2.207538
 H         5.257126         0.282436        -0.885373
 H         3.033611        -1.674743        -0.159177
 H         1.789614        -0.379917         2.086064
 H         0.939558         1.102468         1.739183
