19
Iteration:  1889charge 0 multiplicity 1
 C         0.030900        -0.771671        -0.227592
 C         1.307590        -0.056270        -0.221041
 C         1.747089         1.192328        -1.007106
 C         3.216782         0.728157        -0.247577
 C         4.217500         0.519512        -1.373864
 O         3.371706        -0.559991        -1.789128
 C         2.713286        -0.699286        -0.466154
 O         3.085466         1.156884         1.073711
 C         1.768460         0.488639         1.251875
 H        -0.658070        -0.673372         0.670492
 H        -0.604659        -0.312055        -1.014704
 H         0.156152        -1.810675        -0.551410
 H         1.686661         1.095145        -2.075030
 H         1.414861         2.178515        -0.750719
 H         4.348015         1.149483        -2.131058
 H         5.145778        -0.089255        -1.068350
 H         3.060990        -1.500755         0.232766
 H         1.686101        -0.313998         1.968830
 H         1.187002         1.333930         1.498053
