19
Iteration:  1093charge 0 multiplicity 1
 C         0.000320        -0.755575        -0.236256
 C         1.341720        -0.064376        -0.091323
 C         1.842346         1.187482        -0.814962
 C         3.190642         0.739748        -0.296428
 C         4.209713         0.583499        -1.390505
 O         3.299708        -0.466332        -1.939955
 C         2.734145        -0.693215        -0.525573
 O         3.100994         1.021289         1.036939
 C         1.735062         0.431485         1.270386
 H         0.264967        -1.697265        -0.654426
 H        -0.488843        -0.862345         0.642570
 H        -0.633411        -0.233738        -0.945802
 H         1.747069         1.198085        -1.920062
 H         1.376842         2.116881        -0.350790
 H         4.244143         1.353027        -2.207985
 H         5.181677         0.233691        -0.966389
 H         3.117299        -1.600383        -0.012836
 H         1.709829        -0.393447         2.046101
 H         1.175930         1.278771         1.662092
