19
Iteration:  4884charge 0 multiplicity 1
 C        -0.051056        -0.703802        -0.215395
 C         1.252947        -0.062445        -0.171585
 C         1.712259         1.172070        -0.917687
 C         3.095878         0.828306        -0.413412
 C         4.319031         0.419163        -1.262853
 O         3.467842        -0.625099        -1.873147
 C         2.720377        -0.657572        -0.540570
 O         3.025107         1.263870         0.989194
 C         1.846517         0.361357         1.330771
 H        -0.584093         0.030115         0.311768
 H        -0.439083        -0.978455        -1.213623
 H         0.027615        -1.619697         0.454430
 H         1.687219         1.089645        -1.976577
 H         1.258412         2.222504        -0.674930
 H         4.715645         1.226151        -2.040325
 H         5.025745        -0.017199        -0.577387
 H         3.054030        -1.512928         0.148385
 H         2.274365        -0.459433         1.873914
 H         1.094063         0.939794         1.948158
