19
Iteration:  3723charge 0 multiplicity 1
 C        -0.006265        -0.801105        -0.279212
 C         1.333152        -0.017368        -0.075672
 C         1.694559         1.187359        -0.909583
 C         3.198423         0.708020        -0.301464
 C         4.279872         0.513500        -1.392272
 O         3.356842        -0.572179        -1.862890
 C         2.787477        -0.700504        -0.504693
 O         3.072240         1.124247         1.033591
 C         1.727793         0.520137         1.333174
 H        -0.910682        -0.042243        -0.352954
 H         0.185922        -1.380132        -1.231812
 H        -0.155459        -1.661506         0.419049
 H         1.673962         1.170843        -2.038656
 H         1.414834         2.153627        -0.582158
 H         4.226357         1.322897        -2.174511
 H         5.278920         0.180694        -1.175431
 H         3.214853        -1.550689         0.085589
 H         1.652308         0.062094         2.325500
 H         1.127985         1.410078         1.384687
