19
Iteration:  4977charge 0 multiplicity 1
 C        -0.008897        -0.803579        -0.266813
 C         1.361008        -0.069602        -0.080098
 C         1.735813         1.208269        -0.943939
 C         3.151100         0.823620        -0.347478
 C         4.324902         0.552333        -1.304591
 O         3.297958        -0.643831        -1.857154
 C         2.709970        -0.648003        -0.497224
 O         3.097983         1.160938         1.035839
 C         1.777631         0.466364         1.283610
 H        -0.909137        -0.110874         0.042674
 H        -0.089405        -1.171751        -1.307210
 H        -0.237050        -1.744070         0.291940
 H         1.838815         1.069725        -2.036196
 H         1.398709         2.193955        -0.755527
 H         4.543297         1.233648        -2.089730
 H         5.187489        -0.123097        -0.949271
 H         3.150384        -1.506187        -0.021617
 H         1.866905        -0.305946         2.151621
 H         1.049910         1.262868         1.525359
