19
Iteration:  4692
 C        -0.063500        -0.754871        -0.154224
 C         1.301737        -0.028666        -0.212052
 C         1.838577         1.191585        -0.936427
 C         3.172444         0.793936        -0.360854
 C         4.259025         0.535495        -1.383567
 O         3.437221        -0.663995        -1.780699
 C         2.714497        -0.647735        -0.530885
 O         3.062294         1.164471         1.025051
 C         1.686104         0.436217         1.276211
 H        -0.729253        -0.162541         0.520412
 H        -0.507561        -0.964858        -1.160028
 H         0.165673        -1.694394         0.272025
 H         1.772722         1.127210        -2.089196
 H         1.396092         2.195311        -0.584052
 H         4.432256         1.162170        -2.232002
 H         5.246822         0.178817        -0.875771
 H         2.917582        -1.549002         0.126281
 H         2.195274        -0.300428         1.891655
 H         0.966001         1.110990         1.671358
