19
Iteration:  4160charge 0 multiplicity 1
 C         0.012231        -0.759175        -0.223129
 C         1.333852        -0.106744        -0.111090
 C         1.849831         1.122116        -0.969812
 C         3.229802         0.793314        -0.270848
 C         4.327860         0.484756        -1.432260
 O         3.306333        -0.542526        -1.891931
 C         2.734881        -0.644384        -0.527560
 O         3.047823         1.135194         1.127160
 C         1.636307         0.541407         1.354293
 H        -0.884667        -0.410838         0.324193
 H        -0.175856        -0.762696        -1.344962
 H         0.087181        -1.793532        -0.025513
 H         1.674084         0.806425        -1.993227
 H         1.312459         2.097877        -0.737720
 H         4.498110         1.133217        -2.352175
 H         5.254547         0.088183        -1.183076
 H         3.182490        -1.542901        -0.073441
 H         1.635411        -0.235926         2.045264
 H         1.006744         1.388174         1.579636
