19
Iteration:   350
 C         0.039157        -0.681632        -0.260627
 C         1.366737        -0.037687        -0.107876
 C         1.709104         1.408972        -0.541836
 C         3.155922         0.813448        -0.213397
 C         4.120315         0.737928        -1.553026
 O         3.129682        -0.182000        -2.131722
 C         2.702035        -0.535540        -0.765103
 O         3.190123         0.665057         1.245963
 C         2.030888        -0.098933         1.339836
 H        -0.280875        -0.646642        -1.341015
 H         0.204810        -1.742493         0.051647
 H        -0.852836        -0.321626         0.309952
 H         1.312086         1.552321        -1.548430
 H         1.466520         2.244058         0.065126
 H         4.367379         1.584228        -2.214147
 H         5.110151         0.147247        -1.251923
 H         3.141245        -1.515978        -0.454187
 H         2.278291        -1.144325         1.482107
 H         1.396218         0.262595         2.126357
