19
Iteration:  2671
 C         0.006163        -0.794264        -0.183562
 C         1.282734        -0.021049        -0.170617
 C         1.752127         1.265935        -0.914649
 C         3.160546         0.782856        -0.360354
 C         4.269427         0.542083        -1.390388
 O         3.459864        -0.649691        -1.786642
 C         2.671455        -0.623193        -0.505743
 O         3.089594         1.057463         0.998873
 C         1.701804         0.460134         1.236953
 H        -0.637446        -0.474536         0.675395
 H        -0.387617        -0.780572        -1.205055
 H         0.204408        -1.814166         0.075668
 H         1.611019         1.302260        -2.068656
 H         1.386056         2.313635        -0.514448
 H         4.644190         1.319051        -2.087876
 H         5.200796         0.059914        -0.876920
 H         3.022420        -1.393066         0.216610
 H         1.728010        -0.269309         2.091369
 H         1.061125         1.280335         1.584339
