19
Iteration:  4878
 C        -0.072844        -0.695346        -0.134077
 C         1.278284        -0.088462        -0.160961
 C         1.746365         1.243902        -0.971956
 C         3.137335         0.805100        -0.400978
 C         4.293145         0.391553        -1.311293
 O         3.504642        -0.584935        -1.918943
 C         2.738182        -0.676066        -0.489121
 O         2.962364         1.240605         1.016657
 C         1.813455         0.393110         1.334199
 H        -0.911686        -0.041678         0.341761
 H        -0.345519        -0.951622        -1.176762
 H        -0.032713        -1.701919         0.268117
 H         1.679513         0.959882        -2.062833
 H         1.285363         2.147918        -0.698538
 H         4.722712         1.065579        -1.975356
 H         5.098385        -0.009979        -0.614616
 H         3.146139        -1.525101         0.018911
 H         2.300746        -0.487414         1.850701
 H         1.130342         0.997408         1.919671
