19
Iteration:   472charge 0 multiplicity 1
 C         0.014476        -0.716983        -0.332332
 C         1.368390        -0.114005        -0.056779
 C         1.739375         1.302386        -0.608218
 C         3.155332         0.722580        -0.294822
 C         4.140869         0.668448        -1.435012
 O         3.110300        -0.104955        -2.089082
 C         2.675823        -0.615170        -0.752333
 O         3.143358         0.839762         1.167245
 C         2.087385         0.019336         1.422541
 H        -0.453591        -1.278341         0.579206
 H        -0.777642         0.021853        -0.651240
 H         0.035522        -1.458841        -1.099175
 H         1.762237         1.489730        -1.649729
 H         1.407530         2.120589        -0.079983
 H         4.486837         1.557546        -2.002218
 H         4.984336        -0.032220        -1.118439
 H         3.183457        -1.577987        -0.556888
 H         2.472691        -0.883479         1.749246
 H         1.406512         0.515458         2.090293
