19
Iteration:  1274charge 0 multiplicity 1
 C         0.022331        -0.781054        -0.301573
 C         1.363067        -0.036871        -0.154104
 C         1.745843         1.361689        -0.876883
 C         3.127954         0.884746        -0.376452
 C         4.249142         0.487124        -1.296557
 O         3.310362        -0.644175        -1.857636
 C         2.672865        -0.618406        -0.553739
 O         3.096798         1.116794         1.072743
 C         1.879201         0.317415         1.309715
 H        -0.582992        -0.666249        -1.221902
 H         0.124594        -1.934609        -0.100253
 H        -0.763816        -0.518210         0.455915
 H         1.710693         1.064362        -1.950848
 H         1.062154         2.309818        -0.768580
 H         4.550183         1.195322        -2.114341
 H         5.273785         0.135998        -0.831351
 H         3.045119        -1.370766         0.147435
 H         2.146777        -0.514342         1.972470
 H         0.949574         0.787405         1.794276
