19
Iteration:  3076
 C         0.041291        -0.823490        -0.268537
 C         1.297007         0.003911        -0.144336
 C         1.726204         1.345679        -0.885244
 C         3.103356         0.824592        -0.388262
 C         4.269604         0.443184        -1.329954
 O         3.419787        -0.696968        -1.755351
 C         2.648296        -0.577578        -0.524866
 O         3.074813         1.115342         0.959730
 C         1.790040         0.425900         1.292420
 H        -0.986458        -0.718465         0.245926
 H        -0.280345        -0.850085        -1.319085
 H         0.377877        -1.805887         0.139282
 H         1.570787         1.386459        -1.980029
 H         1.399400         2.333835        -0.561219
 H         4.466835         1.077553        -2.255033
 H         5.236620         0.008371        -0.786967
 H         3.152988        -1.129610         0.272766
 H         2.182675        -0.365798         1.888965
 H         1.207523         1.085021         1.898804
