19
Iteration:  3197charge 0 multiplicity 1
 C        -0.098099        -0.720167        -0.205877
 C         1.307231        -0.028279        -0.112319
 C         1.708906         1.201574        -0.996884
 C         3.116741         0.811532        -0.383508
 C         4.284802         0.468223        -1.263917
 O         3.514298        -0.636107        -1.864386
 C         2.680632        -0.648371        -0.464451
 O         3.022279         1.185975         0.981726
 C         1.891326         0.413410         1.288828
 H        -1.034909        -0.105061         0.001035
 H        -0.447729        -1.254423        -1.094012
 H        -0.124773        -1.506976         0.608577
 H         1.321778         0.964008        -2.038810
 H         1.419977         2.233815        -0.816031
 H         4.595587         1.173397        -2.028978
 H         5.169089         0.129274        -0.732431
 H         3.166387        -1.506632        -0.022933
 H         2.243197        -0.444647         1.858299
 H         1.165387         0.970581         1.871771
