19
Iteration:  1391
 C        -0.003394        -0.775257        -0.269523
 C         1.343911        -0.034000        -0.138270
 C         1.727918         1.241842        -0.909221
 C         3.133554         0.770957        -0.357233
 C         4.255252         0.505856        -1.266993
 O         3.295723        -0.521137        -1.866308
 C         2.682419        -0.640674        -0.528540
 O         3.105285         1.167598         1.028886
 C         1.886000         0.309338         1.260090
 H        -0.083589        -1.316595        -1.247472
 H        -0.131684        -1.478197         0.530897
 H        -0.896774        -0.096474        -0.270607
 H         1.525567         1.349818        -1.976530
 H         1.316350         2.169099        -0.422414
 H         4.741011         1.187224        -1.905415
 H         5.019119        -0.114631        -0.715780
 H         3.145041        -1.538036        -0.005298
 H         2.298323        -0.464843         1.921909
 H         1.094347         0.850995         1.831840
