19
Iteration:  3957
 C        -0.012653        -0.631216        -0.188138
 C         1.357389        -0.098889        -0.145641
 C         1.803172         1.064183        -0.990204
 C         3.208345         0.799665        -0.298351
 C         4.273455         0.555368        -1.377086
 O         3.414008        -0.615112        -1.851619
 C         2.692391        -0.664372        -0.491886
 O         2.938801         1.212633         1.061412
 C         1.792913         0.392954         1.286282
 H        -0.803500        -0.164978         0.455082
 H        -0.369657        -0.657046        -1.252847
 H        -0.062663        -1.793574        -0.035788
 H         1.809998         1.007572        -2.012918
 H         1.412067         2.089288        -0.822654
 H         4.404268         1.396367        -2.068324
 H         5.263343         0.053714        -1.134070
 H         3.035399        -1.508803         0.092657
 H         1.960773        -0.546425         1.865216
 H         1.078054         0.976854         1.849707
