19
Iteration:  2518
 C        -0.055716        -0.733077        -0.241805
 C         1.295460        -0.045094        -0.156532
 C         1.750204         1.124294        -0.951699
 C         3.218242         0.805175        -0.330871
 C         4.321320         0.477020        -1.347590
 O         3.360026        -0.558200        -1.783185
 C         2.748677        -0.622557        -0.461988
 O         2.996757         1.224372         0.943476
 C         1.825268         0.366943         1.324474
 H        -0.814774        -0.173444         0.344438
 H        -0.497791        -0.619760        -1.251315
 H         0.134073        -1.796184        -0.041489
 H         1.697254         1.007889        -2.097519
 H         1.154840         2.052232        -0.522932
 H         4.799178         1.010573        -2.162120
 H         5.164674        -0.225337        -0.917367
 H         3.015646        -1.544279         0.068397
 H         2.106711        -0.430105         2.059982
 H         1.042899         1.017754         1.776859
