19
Iteration:  3387charge 0 multiplicity 1
 C        -0.005657        -0.771164        -0.260765
 C         1.334109        -0.009543        -0.131961
 C         1.711557         1.295163        -0.886767
 C         3.123527         0.830210        -0.363552
 C         4.222020         0.511863        -1.444901
 O         3.469383        -0.782384        -1.751435
 C         2.697360        -0.608299        -0.443462
 O         3.095939         1.055478         1.039022
 C         1.778242         0.534717         1.254052
 H        -0.982587        -0.225784        -0.121527
 H        -0.022365        -1.020721        -1.386708
 H        -0.098536        -1.782882         0.275881
 H         1.707252         1.308621        -1.943714
 H         1.219630         2.252736        -0.563639
 H         4.241353         1.151957        -2.237823
 H         5.268448         0.315747        -1.198831
 H         3.069425        -1.412354         0.206045
 H         1.853386        -0.267026         1.981879
 H         1.123713         1.330011         1.551577
