19
Iteration:  3532
 C        -0.058165        -0.694728        -0.341033
 C         1.392663        -0.099051        -0.054353
 C         1.718469         1.085551        -0.924014
 C         3.216346         0.793719        -0.305300
 C         4.288769         0.474289        -1.354410
 O         3.292744        -0.594304        -1.871549
 C         2.806717        -0.665942        -0.474226
 O         2.999634         1.228932         1.007057
 C         1.819346         0.477808         1.381326
 H        -0.669338         0.299635        -0.408467
 H         0.196582        -1.296966        -1.259401
 H        -0.564309        -1.470662         0.358025
 H         1.592472         0.948497        -2.045711
 H         1.234312         2.034789        -0.856061
 H         4.517888         1.239450        -2.087768
 H         5.185285        -0.012743        -0.992660
 H         3.201129        -1.640319        -0.009396
 H         2.089694        -0.445852         1.908464
 H         1.079806         1.156828         1.923198
