19
Iteration:   893charge 0 multiplicity 1
 C        -0.101500        -0.671432        -0.254708
 C         1.393840        -0.160378        -0.153018
 C         1.846048         1.191192        -0.835718
 C         3.201318         0.757363        -0.263964
 C         4.157891         0.670250        -1.429651
 O         3.305985        -0.386249        -1.929380
 C         2.756990        -0.699570        -0.558507
 O         3.133550         0.960405         1.122567
 C         1.798025         0.305373         1.328326
 H        -0.854146         0.122291        -0.259442
 H        -0.285296        -1.271367        -1.085268
 H        -0.218483        -1.290093         0.663119
 H         1.686911         1.168650        -1.908620
 H         1.349957         2.104513        -0.470361
 H         4.222122         1.580502        -2.168446
 H         5.130040         0.276404        -1.397967
 H         3.162469        -1.681724        -0.138633
 H         1.908687        -0.589144         2.016544
 H         0.992741         1.100459         1.498506
