19
Iteration:  1945charge 0 multiplicity 1
 C        -0.093062        -0.725651        -0.221219
 C         1.296750        -0.063201        -0.231685
 C         1.699456         1.185137        -0.928048
 C         3.138008         0.850005        -0.368255
 C         4.233869         0.588553        -1.300375
 O         3.483903        -0.683085        -1.765450
 C         2.691811        -0.657109        -0.533080
 O         3.105289         1.123230         1.000464
 C         1.829916         0.396574         1.286394
 H        -0.747777        -0.113844         0.530986
 H        -0.536108        -0.605235        -1.222690
 H        -0.057139        -1.765935         0.052105
 H         1.655882         1.152476        -2.018699
 H         1.344623         2.169106        -0.553780
 H         4.465565         1.157058        -2.162346
 H         5.274326         0.306296        -0.881994
 H         3.060198        -1.511838         0.111071
 H         1.987323        -0.466309         1.939394
 H         1.321459         1.163040         1.828941
