19
Iteration:  3867
 C         0.025924        -0.811488        -0.301206
 C         1.376940        -0.055242        -0.196840
 C         1.764659         1.275101        -0.888615
 C         3.181358         0.872462        -0.305043
 C         4.237637         0.408094        -1.369060
 O         3.312961        -0.580469        -1.783524
 C         2.730416        -0.727347        -0.484531
 O         3.019799         1.269040         1.027490
 C         1.808109         0.382792         1.275277
 H        -0.865359        -0.118109        -0.357951
 H        -0.035560        -1.502342        -1.236266
 H        -0.109914        -1.474075         0.622384
 H         1.657325         1.281083        -2.024925
 H         1.549442         2.201495        -0.472657
 H         4.309648         1.175775        -2.167367
 H         5.072103        -0.148373        -0.953504
 H         3.162811        -1.651517        -0.048208
 H         2.138717        -0.405068         2.014663
 H         1.047591         0.922533         1.791937
