19
Iteration:  2048charge 0 multiplicity 1
 C        -0.077569        -0.798796        -0.242758
 C         1.283352        -0.034365        -0.140424
 C         1.746577         1.217324        -0.944193
 C         3.162207         0.786533        -0.331064
 C         4.173242         0.538585        -1.412014
 O         3.492775        -0.646930        -1.817237
 C         2.761087        -0.582458        -0.523081
 O         3.115667         1.089945         1.069194
 C         1.742096         0.463584         1.332496
 H        -0.861375        -0.061944        -0.258999
 H        -0.073230        -1.359935        -1.221344
 H        -0.211592        -1.511207         0.613649
 H         1.813516         1.174047        -2.068114
 H         1.281565         2.265436        -0.538800
 H         4.345721         1.195882        -2.361661
 H         5.150970         0.130950        -1.036372
 H         3.118839        -1.494926         0.024203
 H         1.903824        -0.322863         2.058958
 H         1.063147         1.231984         1.722739
