19
Iteration:  3570charge 0 multiplicity 1
 C         0.033164        -0.819602        -0.311490
 C         1.297736         0.002179        -0.146094
 C         1.674104         1.308758        -0.900873
 C         3.150267         0.803325        -0.331489
 C         4.234489         0.498896        -1.375601
 O         3.406126        -0.751225        -1.745814
 C         2.744283        -0.643238        -0.524330
 O         3.103411         1.128017         1.041870
 C         1.772399         0.511197         1.276516
 H        -0.865928        -0.292021        -0.156481
 H        -0.108541        -0.931997        -1.367968
 H         0.007247        -1.721804         0.254275
 H         1.539795         1.170255        -1.983453
 H         1.368239         2.266895        -0.402831
 H         4.216350         1.256065        -2.228249
 H         5.307368         0.260220        -1.181853
 H         3.028334        -1.448863         0.159890
 H         1.971471        -0.381557         1.917252
 H         1.261283         1.274082         1.847177
