19
Iteration:   576
 C        -0.038666        -0.737670        -0.190790
 C         1.357079        -0.148421        -0.155102
 C         1.656613         1.271146        -0.649861
 C         3.152771         0.793134        -0.302890
 C         4.240045         0.664318        -1.330730
 O         3.203598        -0.171371        -2.068788
 C         2.688919        -0.634064        -0.746130
 O         3.232551         0.853341         1.100260
 C         1.924302         0.088178         1.317349
 H        -0.348857        -1.023421        -1.166883
 H        -0.133699        -1.520738         0.541857
 H        -0.684615         0.220895        -0.017471
 H         1.400858         1.425248        -1.731861
 H         1.232896         2.084296         0.053516
 H         4.686692         1.567843        -1.962031
 H         5.129766        -0.021841        -1.148159
 H         3.289085        -1.517682        -0.569144
 H         2.181091        -0.815001         1.970832
 H         1.248114         0.555586         2.045850
