19
Iteration:   242
 C        -0.064483        -0.648463        -0.254994
 C         1.315572        -0.041161        -0.039414
 C         1.701833         1.375761        -0.363517
 C         3.079917         0.785896        -0.277728
 C         4.111774         0.834624        -1.435103
 O         3.270131        -0.160844        -2.163996
 C         2.567526        -0.534769        -0.865635
 O         3.323020         0.695199         1.134516
 C         2.084135        -0.239700         1.291672
 H        -0.487586        -1.182615         0.652872
 H        -0.815079         0.087832        -0.550170
 H         0.098655        -1.467251        -1.017406
 H         1.377473         1.481632        -1.392854
 H         1.453335         2.136869         0.276134
 H         4.263303         1.709607        -2.059465
 H         5.034986         0.342967        -1.115989
 H         2.895606        -1.556793        -0.723268
 H         2.470029        -1.278944         1.476344
 H         1.420448         0.217983         2.086120
