19
Iteration:  1404
 C        -0.042222        -0.768704        -0.263023
 C         1.321436        -0.129015        -0.100619
 C         1.723071         1.199444        -0.896139
 C         3.188121         0.915334        -0.335742
 C         4.345803         0.430501        -1.356835
 O         3.301070        -0.498845        -1.864270
 C         2.692368        -0.643515        -0.598430
 O         3.048419         1.153695         1.073563
 C         1.860434         0.384976         1.331087
 H         0.021099        -0.976555        -1.319083
 H        -0.227557        -1.709426         0.165850
 H        -0.777201        -0.026632        -0.002190
 H         1.646792         0.906010        -1.969164
 H         1.259671         2.257152        -0.500169
 H         4.585076         1.039618        -2.180545
 H         5.299274        -0.042233        -0.879903
 H         3.097515        -1.505579         0.043572
 H         2.064657        -0.644614         1.751383
 H         1.121270         0.986877         2.009161
