19
Iteration:  2463charge 0 multiplicity 1
 C         0.010421        -0.832964        -0.277060
 C         1.330515        -0.009951        -0.154867
 C         1.793523         1.279507        -0.924631
 C         3.181330         0.753554        -0.341681
 C         4.149626         0.530265        -1.506357
 O         3.438977        -0.678161        -1.728292
 C         2.678517        -0.600924        -0.470366
 O         3.127141         1.073142         1.128755
 C         1.732777         0.494356         1.266418
 H        -0.905610        -0.316663         0.195661
 H        -0.124691        -0.775497        -1.372103
 H        -0.058114        -1.874589         0.134959
 H         1.527133         1.198865        -2.021682
 H         1.291238         2.327768        -0.604885
 H         4.198697         1.191779        -2.356639
 H         5.278407         0.263555        -1.287787
 H         3.114310        -1.278901         0.259154
 H         1.827754        -0.343465         2.034134
 H         1.032661         1.337764         1.353839
