19
Iteration:   799charge 0 multiplicity 1
 C        -0.046363        -0.720179        -0.317964
 C         1.327876        -0.123796        -0.029818
 C         1.804564         1.248335        -0.691732
 C         3.236511         0.805828        -0.312683
 C         4.227803         0.577729        -1.507848
 O         3.266750        -0.336993        -1.991938
 C         2.707622        -0.713267        -0.653856
 O         3.113309         1.028968         1.146901
 C         1.805263         0.208519         1.368782
 H         0.064475        -1.561301        -1.009849
 H        -0.528474        -1.023500         0.646537
 H        -0.582409         0.056298        -0.765459
 H         1.354805         1.133284        -1.690146
 H         1.412065         2.223711        -0.288411
 H         4.377427         1.439037        -2.072563
 H         5.287849         0.115409        -1.304855
 H         3.222434        -1.529284        -0.216213
 H         2.223746        -0.643188         1.864700
 H         1.080090         0.746177         1.928844
