19
Iteration:  1950
 C        -0.080399        -0.712473        -0.213353
 C         1.302368        -0.049902        -0.222132
 C         1.702250         1.210109        -0.950307
 C         3.124508         0.833398        -0.375663
 C         4.212862         0.609864        -1.320412
 O         3.478432        -0.711799        -1.749989
 C         2.655613        -0.643111        -0.519534
 O         3.102180         1.118111         1.006415
 C         1.847896         0.363207         1.274671
 H        -0.704239        -0.181614         0.419703
 H        -0.345828        -0.698710        -1.282969
 H        -0.080059        -1.785528         0.101493
 H         1.709668         1.152052        -2.060555
 H         1.430322         2.237847        -0.535270
 H         4.663239         1.268920        -2.159286
 H         5.055097         0.327872        -0.734874
 H         3.132785        -1.412920         0.078315
 H         2.140256        -0.467539         1.954107
 H         1.280436         1.143140         1.865458
