19
Iteration:   224
 C        -0.110468        -0.757574        -0.205728
 C         1.247372        -0.046118        -0.068450
 C         1.685958         1.450387        -0.431493
 C         3.172955         0.781095        -0.286892
 C         4.107507         0.865869        -1.447127
 O         3.254153        -0.124599        -2.160080
 C         2.672960        -0.516222        -0.855864
 O         3.312511         0.498331         1.066586
 C         2.056512        -0.121142         1.375365
 H        -0.744997        -0.665019         0.712967
 H        -0.658215        -0.282994        -1.029778
 H        -0.060157        -1.758377        -0.592203
 H         1.448518         1.863389        -1.439504
 H         1.602617         2.235387         0.440119
 H         4.160526         1.905871        -1.892456
 H         5.096328         0.510156        -1.241278
 H         3.148637        -1.405235        -0.425884
 H         2.156152        -1.188883         1.574072
 H         1.546967         0.347762         2.250116
