19
Iteration:  2152
 C         0.014458        -0.835905        -0.246129
 C         1.318430        -0.053886        -0.125753
 C         1.813611         1.316070        -0.951493
 C         3.156303         0.838244        -0.383603
 C         4.189146         0.513586        -1.377616
 O         3.411538        -0.705341        -1.835046
 C         2.736579        -0.629121        -0.513973
 O         3.100458         1.069798         1.120449
 C         1.675965         0.523718         1.283700
 H        -0.826672        -0.364121         0.394811
 H        -0.276878        -0.824365        -1.299788
 H         0.120574        -1.874606         0.076277
 H         1.690292         1.231371        -2.057815
 H         1.395245         2.330774        -0.531807
 H         4.190724         1.211503        -2.266997
 H         5.247237         0.092268        -1.137966
 H         3.272458        -1.336316         0.062345
 H         1.806096        -0.308694         2.073970
 H         1.090751         1.355894         1.731759
