19
Iteration:  3563
 C         0.027916        -0.777380        -0.343389
 C         1.355911        -0.050722        -0.184581
 C         1.658073         1.254073        -0.874436
 C         3.171151         0.845216        -0.355753
 C         4.179780         0.488586        -1.372880
 O         3.384767        -0.693799        -1.766006
 C         2.748732        -0.657462        -0.433470
 O         3.147501         1.150504         0.989092
 C         1.751010         0.480120         1.316716
 H        -0.867319        -0.121521        -0.174130
 H        -0.035213        -1.110237        -1.429332
 H        -0.128737        -1.725038         0.213123
 H         1.648899         1.224161        -2.037974
 H         1.273501         2.202434        -0.474985
 H         4.288217         1.142452        -2.184640
 H         5.133370         0.135331        -0.817429
 H         2.979263        -1.522403         0.189940
 H         1.963200        -0.375082         2.006318
 H         1.274889         1.275045         1.943823
