19
Iteration:  1732
 C         0.051842        -0.743960        -0.258861
 C         1.306877         0.006476        -0.113883
 C         1.704628         1.249958        -0.897227
 C         3.162664         0.780538        -0.330411
 C         4.228949         0.446102        -1.394761
 O         3.405048        -0.636620        -1.884542
 C         2.668281        -0.693929        -0.528737
 O         3.032921         1.259101         1.108524
 C         1.855918         0.373772         1.294447
 H        -0.361392        -0.120829        -1.059167
 H         0.124014        -1.665006        -0.958276
 H        -0.530227        -0.931233         0.767981
 H         1.772608         1.079200        -1.958562
 H         1.276087         2.169845        -0.712655
 H         4.560296         1.200012        -2.083545
 H         5.116809        -0.052194        -0.848648
 H         2.925201        -1.615802         0.100748
 H         2.049891        -0.536176         1.869003
 H         1.061848         0.913896         1.884821
