19
Iteration:  3788
 C        -0.030342        -0.727470        -0.119129
 C         1.302644        -0.010441        -0.171979
 C         1.767862         1.326409        -0.925593
 C         3.117282         0.807306        -0.389820
 C         4.221546         0.497813        -1.411583
 O         3.576184        -0.721446        -1.726860
 C         2.732745        -0.636335        -0.579139
 O         2.981867         1.154608         0.994279
 C         1.733710         0.340409         1.278081
 H        -0.858336        -0.356930         0.563637
 H        -0.513418        -0.836478        -1.104831
 H         0.019035        -1.776698         0.159422
 H         1.736659         1.452110        -2.016172
 H         1.448207         2.236625        -0.572859
 H         4.425372         1.074775        -2.376336
 H         5.201188         0.478307        -0.989583
 H         3.192053        -1.442747         0.088202
 H         1.961022        -0.579968         1.876699
 H         1.070585         1.068029         1.753263
