19
Iteration:  2119charge 0 multiplicity 1
 C        -0.086892        -0.758840        -0.186998
 C         1.352146        -0.107026        -0.144576
 C         1.782948         1.154979        -1.003285
 C         3.163844         0.758641        -0.330398
 C         4.265823         0.529490        -1.344325
 O         3.405702        -0.539488        -1.812845
 C         2.748118        -0.712426        -0.479248
 O         3.080907         1.110018         1.002993
 C         1.707483         0.513898         1.273088
 H        -0.753984        -0.289802         0.614975
 H        -0.508846        -0.405526        -1.126635
 H         0.070968        -1.823119        -0.168224
 H         1.666567         1.021683        -2.084376
 H         1.505568         2.202985        -0.646036
 H         4.352273         1.487273        -1.995105
 H         5.277899         0.092862        -1.035099
 H         3.178496        -1.487808         0.092483
 H         1.986080        -0.317730         2.006205
 H         0.992474         1.265051         1.717425
