19
Iteration:  4958
 C         0.045222        -0.742142        -0.305856
 C         1.394124        -0.130301        -0.217450
 C         1.861113         1.147758        -0.920943
 C         3.204557         0.683411        -0.270071
 C         4.126170         0.525385        -1.459492
 O         3.305242        -0.529662        -1.802734
 C         2.762530        -0.713512        -0.391193
 O         3.067011         1.128220         1.080967
 C         1.695719         0.568386         1.251499
 H        -0.669730        -0.020005        -0.017623
 H        -0.137141        -1.197244        -1.268601
 H         0.099439        -1.508184         0.514871
 H         1.625618         1.181965        -1.958850
 H         1.484559         2.163322        -0.522944
 H         4.112272         1.265460        -2.277158
 H         5.079496         0.227321        -1.123746
 H         3.338086        -1.488126         0.146481
 H         1.666097        -0.235090         1.983457
 H         1.125504         1.384969         1.666501
