19
Iteration:  3740
 C         0.003514        -0.791813        -0.309647
 C         1.350917        -0.158077        -0.137514
 C         1.794413         1.086821        -0.924290
 C         3.120008         0.758313        -0.354021
 C         4.214779         0.557698        -1.263088
 O         3.311764        -0.537594        -1.878594
 C         2.687519        -0.696282        -0.450724
 O         3.146479         1.187994         1.040444
 C         1.789424         0.583255         1.268417
 H        -0.734827        -0.086272        -0.065513
 H        -0.185348        -1.153502        -1.289976
 H        -0.229009        -1.646148         0.343015
 H         1.620808         0.961258        -1.956122
 H         1.250555         2.052524        -0.628466
 H         4.689872         1.261909        -1.985075
 H         5.086102        -0.028984        -0.841108
 H         3.158701        -1.580174        -0.010940
 H         2.147698        -0.190150         1.967036
 H         1.090229         1.349923         1.757216
