19
Iteration:  2109
 C        -0.114043        -0.738861        -0.183171
 C         1.294094        -0.072828        -0.110585
 C         1.813471         1.135241        -1.008904
 C         3.177270         0.764144        -0.331147
 C         4.262381         0.583266        -1.315580
 O         3.400570        -0.604512        -1.880834
 C         2.783806        -0.651120        -0.489224
 O         3.047445         1.174611         1.014222
 C         1.790831         0.433742         1.294598
 H        -0.901162        -0.504746         0.649504
 H        -0.525464        -0.576730        -1.170120
 H        -0.303493        -1.799122        -0.149083
 H         1.755169         0.955864        -2.076098
 H         1.586243         2.157285        -0.806923
 H         4.674053         1.335832        -2.029106
 H         5.223237         0.095529        -0.829885
 H         3.102840        -1.489120         0.061375
 H         1.948648        -0.383684         2.105737
 H         0.934182         1.069451         1.666474
