19
Iteration:   360charge 0 multiplicity 1
 C         0.042944        -0.642656        -0.289109
 C         1.405184        -0.053700        -0.064848
 C         1.782905         1.306223        -0.526481
 C         3.199665         0.798669        -0.248576
 C         4.078517         0.683439        -1.488135
 O         3.097087        -0.131843        -2.136695
 C         2.690241        -0.582639        -0.788074
 O         3.142835         0.821377         1.221819
 C         2.015869        -0.159561         1.346555
 H        -0.438507        -0.312586        -1.229188
 H         0.201246        -1.752145        -0.299971
 H        -0.582162        -0.329907         0.623211
 H         1.621533         1.488002        -1.613289
 H         1.353520         2.125084         0.102085
 H         4.229749         1.610138        -1.996223
 H         5.060524         0.097505        -1.296978
 H         3.126781        -1.610447        -0.652503
 H         2.464531        -1.149194         1.436967
 H         1.287433         0.035280         2.096869
