19
Iteration:  3341charge 0 multiplicity 1
 C        -0.035840        -0.644060        -0.129498
 C         1.294355        -0.038209        -0.086290
 C         1.786885         1.149240        -0.988878
 C         3.191084         0.753278        -0.334644
 C         4.342624         0.520309        -1.340165
 O         3.402846        -0.571929        -1.851321
 C         2.775829        -0.720474        -0.556336
 O         2.966779         1.153709         0.992458
 C         1.731415         0.408189         1.283749
 H        -0.832002         0.106395        -0.246216
 H        -0.234617        -1.429798        -0.879346
 H        -0.387496        -1.202788         0.811984
 H         1.738188         0.780496        -2.000917
 H         1.305662         2.155046        -1.053417
 H         4.657677         1.156834        -2.084472
 H         5.225494         0.123621        -0.858746
 H         3.284992        -1.470619         0.012165
 H         1.973637        -0.394933         2.010035
 H         1.071149         1.152496         1.683703
