19
Iteration:  4058charge 0 multiplicity 1
 C         0.042644        -0.688503        -0.228865
 C         1.343124        -0.144227        -0.197811
 C         1.785888         1.152049        -0.929988
 C         3.198487         0.778845        -0.304493
 C         4.239580         0.489816        -1.408002
 O         3.352953        -0.549914        -1.840897
 C         2.767076        -0.710093        -0.461498
 O         3.010856         1.175042         1.081832
 C         1.765883         0.460034         1.260031
 H        -0.770298         0.126931        -0.249294
 H        -0.280414        -1.254434        -1.101280
 H        -0.275880        -1.318292         0.682948
 H         1.896046         1.390556        -2.041732
 H         1.260855         1.939173        -0.361464
 H         4.132057         1.264408        -2.113449
 H         5.283759         0.100303        -1.113987
 H         3.217967        -1.591114        -0.070836
 H         1.875309        -0.357275         1.980547
 H         0.884344         1.065050         1.612026
