19
Iteration:  2719charge 0 multiplicity 1
 C        -0.040974        -0.655069        -0.202054
 C         1.356067        -0.092921        -0.097057
 C         1.748001         1.064401        -0.988821
 C         3.170952         0.807396        -0.369333
 C         4.320886         0.561357        -1.312647
 O         3.398383        -0.539928        -1.849849
 C         2.715045        -0.743186        -0.450841
 O         3.014043         1.120538         1.013508
 C         1.757651         0.443648         1.251871
 H        -0.692111        -0.148037         0.466566
 H        -0.306021        -0.505119        -1.246289
 H        -0.123085        -1.727318         0.168050
 H         1.633472         0.974544        -2.043098
 H         1.386287         2.087590        -0.675689
 H         4.428073         1.306483        -2.127483
 H         5.342832         0.437417        -0.870230
 H         3.124852        -1.654023         0.044007
 H         2.023477        -0.377159         1.851908
 H         1.005266         1.109133         1.669970
