19
Iteration:  2462charge 0 multiplicity 1
 C         0.006098        -0.835210        -0.275890
 C         1.330715        -0.001386        -0.159555
 C         1.791989         1.274117        -0.933243
 C         3.169762         0.763034        -0.330299
 C         4.153203         0.527880        -1.510954
 O         3.439133        -0.685586        -1.736116
 C         2.682315        -0.598969        -0.471731
 O         3.128685         1.078108         1.133559
 C         1.741185         0.482749         1.268039
 H        -0.916745        -0.332608         0.197352
 H        -0.111401        -0.823645        -1.348894
 H        -0.079221        -1.823619         0.134683
 H         1.557037         1.225237        -2.017749
 H         1.299615         2.328410        -0.594090
 H         4.206540         1.235705        -2.360593
 H         5.260957         0.239736        -1.239491
 H         3.095757        -1.267561         0.268570
 H         1.812880        -0.301095         2.028273
 H         1.046579         1.308476         1.375172
