19
Iteration:  1197
 C         0.000755        -0.650988        -0.224550
 C         1.343202        -0.093447        -0.163572
 C         1.714171         1.159840        -0.933982
 C         3.165524         0.752445        -0.327363
 C         4.269921         0.602301        -1.361299
 O         3.363745        -0.519579        -1.846664
 C         2.741206        -0.645750        -0.501670
 O         3.027448         1.063780         0.980329
 C         1.843470         0.330856         1.358631
 H        -0.263787        -0.855839        -1.295260
 H        -0.256502        -1.713306         0.197455
 H        -0.744444        -0.025090         0.348433
 H         1.696885         1.114183        -2.034663
 H         1.229299         2.102187        -0.593874
 H         4.412004         1.441060        -2.033867
 H         5.299573         0.120255        -1.119492
 H         2.997212        -1.456590         0.180289
 H         2.069050        -0.509645         2.016460
 H         1.117579         1.034498         1.868668
