19
Iteration:   980charge 0 multiplicity 1
 C         0.003004        -0.794304        -0.196446
 C         1.362903        -0.067044        -0.146533
 C         1.875345         1.262203        -0.884655
 C         3.134560         0.801207        -0.336068
 C         4.190954         0.614621        -1.398270
 O         3.319016        -0.463723        -1.934996
 C         2.688026        -0.602417        -0.606238
 O         3.090873         0.906876         1.150958
 C         1.781647         0.382483         1.325333
 H        -0.368054        -1.128581         0.761782
 H        -0.731068        -0.099242        -0.472841
 H        -0.047900        -1.654314        -0.840389
 H         1.866319         1.065564        -1.935469
 H         1.512375         2.216153        -0.586989
 H         4.413732         1.494929        -2.216677
 H         5.013395         0.039060        -1.043352
 H         3.115391        -1.541030        -0.121079
 H         1.808207        -0.494635         2.030553
 H         1.175898         1.271754         1.713669
