19
Iteration:   575charge 0 multiplicity 1
 C        -0.034568        -0.740414        -0.184211
 C         1.352717        -0.140410        -0.169688
 C         1.652786         1.279701        -0.655550
 C         3.153405         0.786033        -0.302033
 C         4.238029         0.671771        -1.337355
 O         3.206677        -0.172711        -2.075609
 C         2.694300        -0.633684        -0.732402
 O         3.234350         0.842899         1.102700
 C         1.919595         0.089849         1.328202
 H        -0.367674        -1.057850        -1.161112
 H        -0.143366        -1.524656         0.575192
 H        -0.686594         0.232951        -0.048567
 H         1.400521         1.443522        -1.715842
 H         1.256590         2.063892         0.038505
 H         4.695341         1.581334        -1.984536
 H         5.127168        -0.014313        -1.144158
 H         3.293838        -1.508449        -0.524050
 H         2.161858        -0.822251         1.927264
 H         1.243429         0.554683         2.062367
