19
Iteration:  1871
 C        -0.072156        -0.860133        -0.337152
 C         1.304020        -0.035825        -0.145280
 C         1.757320         1.269896        -0.889685
 C         3.168060         0.866940        -0.393930
 C         4.295336         0.451257        -1.352777
 O         3.395024        -0.700769        -1.777331
 C         2.655967        -0.599500        -0.473918
 O         3.132228         1.147470         1.041700
 C         1.770044         0.495304         1.285732
 H        -0.634483        -0.817048         0.593852
 H        -0.763288        -0.468637        -1.033617
 H         0.249676        -1.853550        -0.529737
 H         1.713008         1.265575        -2.016181
 H         1.282169         2.315662        -0.543368
 H         4.459375         1.232492        -2.219466
 H         5.190659         0.179169        -0.827237
 H         3.121258        -1.456116         0.056029
 H         2.155419        -0.266334         1.997941
 H         1.002492         1.087104         1.806814
