19
Iteration:  1341
 C        -0.095235        -0.705044        -0.197261
 C         1.330564        -0.084111        -0.195088
 C         1.767391         1.189014        -0.869576
 C         3.196734         0.792234        -0.313085
 C         4.214250         0.612547        -1.459482
 O         3.419117        -0.530713        -1.872629
 C         2.797215        -0.652992        -0.478761
 O         3.148402         0.941322         1.089583
 C         1.657582         0.418393         1.274353
 H        -0.192477        -1.520788        -0.928952
 H        -0.340808        -1.181258         0.851408
 H        -0.881507         0.084000        -0.357609
 H         1.783909         0.985919        -1.943427
 H         1.203099         2.185583        -0.575201
 H         4.170143         1.454928        -2.254580
 H         5.330939         0.506152        -1.400335
 H         3.369537        -1.388929         0.076489
 H         1.703825        -0.405607         2.020443
 H         1.110695         1.284512         1.737824
