19
Iteration:  1454charge 0 multiplicity 1
 C        -0.072224        -0.727609        -0.244814
 C         1.300290        -0.075425        -0.263719
 C         1.758874         1.249840        -0.890210
 C         3.214452         0.753037        -0.301855
 C         4.133822         0.600345        -1.468838
 O         3.497147        -0.589441        -1.753401
 C         2.655001        -0.680837        -0.504835
 O         3.154103         1.028764         1.096990
 C         1.787264         0.459411         1.295493
 H        -0.655700        -0.608038        -1.202370
 H         0.132519        -1.842562        -0.213059
 H        -0.542297        -0.455998         0.748957
 H         1.687693         1.119331        -1.957290
 H         1.298222         2.047593        -0.524744
 H         4.115049         1.469230        -2.250895
 H         5.169511         0.422387        -1.265280
 H         2.976003        -1.581918        -0.023494
 H         1.820973        -0.248211         2.093130
 H         1.010922         1.122982         1.477785
