19
Iteration:  1441charge 0 multiplicity 1
 C         0.014503        -0.725335        -0.256060
 C         1.371653        -0.067791        -0.141053
 C         1.774643         1.208412        -0.860849
 C         3.128721         0.758792        -0.301271
 C         4.193401         0.637876        -1.394729
 O         3.392001        -0.626051        -1.792414
 C         2.759345        -0.704464        -0.528063
 O         3.073160         1.044176         1.034940
 C         1.760847         0.433340         1.234896
 H        -0.508903        -0.336992        -1.118008
 H        -0.029777        -1.847044        -0.128292
 H        -0.676042        -0.324676         0.485772
 H         1.822181         1.359169        -1.942210
 H         1.479183         2.200317        -0.545893
 H         3.967134         1.379341        -2.291526
 H         5.229465         0.454559        -1.224978
 H         2.902336        -1.613196         0.008703
 H         1.849847        -0.316363         2.036109
 H         1.242635         1.278152         1.638551
