19
Iteration:  2849charge 0 multiplicity 1
 C        -0.066617        -0.717457        -0.143797
 C         1.268588        -0.038135        -0.179642
 C         1.691599         1.229489        -0.964868
 C         3.130379         0.887968        -0.344035
 C         4.279766         0.479432        -1.354344
 O         3.549993        -0.651627        -1.806973
 C         2.701591        -0.621742        -0.572675
 O         3.053068         1.133309         1.032638
 C         1.812635         0.363179         1.292140
 H        -0.849312        -0.174293         0.300275
 H        -0.486306        -0.963726        -1.127496
 H         0.075358        -1.756904         0.239543
 H         1.698477         1.122019        -2.091665
 H         1.009762         2.124477        -0.618587
 H         4.354617         1.229401        -2.083304
 H         5.272898         0.203133        -0.960929
 H         3.149219        -1.440142         0.033671
 H         1.993023        -0.580712         1.837858
 H         1.077911         0.961809         1.895898
