19
Iteration:  3253
 C         0.002875        -0.796688        -0.283789
 C         1.347140        -0.041993        -0.133450
 C         1.799031         1.200270        -0.968070
 C         3.162947         0.828193        -0.290742
 C         4.194991         0.527261        -1.450451
 O         3.373599        -0.711764        -1.753399
 C         2.705795        -0.620805        -0.487961
 O         3.144583         1.078528         1.063549
 C         1.674187         0.568865         1.292855
 H        -0.682330        -0.381056         0.490813
 H        -0.228388        -0.804705        -1.360216
 H         0.196310        -1.940718        -0.183001
 H         1.701458         1.245247        -2.084283
 H         1.352107         2.015919        -0.456423
 H         4.246436         1.079799        -2.337825
 H         5.182461         0.273303        -1.042956
 H         3.233150        -1.340277         0.117038
 H         1.632303        -0.083170         2.152151
 H         1.186940         1.503367         1.436998
