19
Iteration:  3790charge 0 multiplicity 1
 C        -0.048506        -0.722399        -0.116568
 C         1.317429        -0.021428        -0.179347
 C         1.771924         1.343992        -0.930679
 C         3.118379         0.808051        -0.377563
 C         4.207947         0.503943        -1.416534
 O         3.586927        -0.718218        -1.719155
 C         2.734242        -0.639800        -0.575255
 O         2.994373         1.146838         0.995691
 C         1.736670         0.343096         1.273561
 H        -0.869279        -0.350861         0.578641
 H        -0.543243        -0.887049        -1.140795
 H         0.049041        -1.816804         0.139300
 H         1.682493         1.426680        -2.083640
 H         1.375358         2.246923        -0.567140
 H         4.335520         1.044580        -2.333246
 H         5.194367         0.444434        -0.981284
 H         3.127924        -1.467766         0.035590
 H         1.960042        -0.514428         1.943649
 H         1.088830         1.051736         1.684057
