19
Iteration:  3860charge 0 multiplicity 1
 C         0.030071        -0.760600        -0.285283
 C         1.374694        -0.076255        -0.158632
 C         1.801804         1.204232        -0.934912
 C         3.199658         0.829969        -0.275440
 C         4.232815         0.403848        -1.398375
 O         3.315426        -0.565236        -1.835743
 C         2.766189        -0.728526        -0.516820
 O         3.001769         1.288904         1.036333
 C         1.760328         0.407367         1.349618
 H        -0.880666        -0.171414        -0.341011
 H         0.061276        -1.348906        -1.202019
 H        -0.149975        -1.561416         0.479379
 H         1.566002         1.394352        -1.941151
 H         1.225943         2.062257        -0.349121
 H         4.528254         1.134946        -2.109661
 H         5.179351        -0.078699        -1.050305
 H         3.077952        -1.613069         0.009702
 H         2.154519        -0.330842         2.011115
 H         0.928419         1.003707         1.751825
