19
Iteration:  3249charge 0 multiplicity 1
 C         0.041856        -0.794286        -0.270719
 C         1.371643        -0.071502        -0.135664
 C         1.805137         1.205306        -0.964420
 C         3.157123         0.780477        -0.301613
 C         4.205659         0.518273        -1.436981
 O         3.348681        -0.666808        -1.780993
 C         2.701150        -0.638886        -0.407415
 O         3.124972         1.104294         1.049035
 C         1.679386         0.549077         1.259432
 H        -0.683498        -0.361151         0.438464
 H        -0.328171        -0.752841        -1.301665
 H         0.024925        -1.861125        -0.176650
 H         1.748363         1.370360        -2.110228
 H         1.296911         2.098062        -0.470935
 H         4.386811         1.100267        -2.428739
 H         5.174725         0.223341        -1.094409
 H         3.267713        -1.327135         0.263682
 H         1.594070        -0.204376         2.100466
 H         1.151898         1.549633         1.415344
