19
Iteration:  2613
 C         0.015814        -0.716292        -0.326546
 C         1.397063        -0.095215        -0.108658
 C         1.691954         1.180767        -0.956432
 C         3.238459         0.724208        -0.241446
 C         4.231359         0.501126        -1.454342
 O         3.326109        -0.595633        -1.854320
 C         2.745856        -0.709278        -0.417817
 O         3.025424         1.216026         1.069985
 C         1.802530         0.476157         1.312499
 H        -0.628678         0.173975        -0.606101
 H         0.127076        -1.215299        -1.284297
 H        -0.359334        -1.471370         0.367352
 H         1.683054         1.053408        -2.038753
 H         1.180981         1.968692        -0.446832
 H         4.285328         1.462821        -2.100958
 H         5.153650         0.106287        -1.119494
 H         3.073178        -1.659432         0.034854
 H         2.010579        -0.444550         2.002914
 H         1.126901         1.185294         1.887836
