19
Iteration:  4203
 C         0.013293        -0.842992        -0.307185
 C         1.300131         0.025440        -0.173377
 C         1.649998         1.331146        -0.851234
 C         3.118292         0.838930        -0.402157
 C         4.232465         0.482368        -1.372867
 O         3.493017        -0.729708        -1.709411
 C         2.642733        -0.590879        -0.531229
 O         3.132262         1.128653         0.999942
 C         1.806861         0.404799         1.264945
 H        -0.831754        -0.120718        -0.153094
 H        -0.234025        -1.271099        -1.330638
 H        -0.189356        -1.561510         0.442317
 H         1.557786         1.388227        -1.910777
 H         1.433709         2.240427        -0.253071
 H         4.492881         1.283913        -2.115528
 H         5.139533         0.136163        -0.880964
 H         2.856063        -1.389793         0.131848
 H         2.176729        -0.448769         1.769206
 H         1.186905         0.994173         1.958033
