19
Iteration:  1425
 C        -0.000456        -0.683769        -0.273840
 C         1.339248        -0.070114        -0.107325
 C         1.788027         1.218552        -0.922826
 C         3.166424         0.759575        -0.348571
 C         4.207004         0.577853        -1.437198
 O         3.379008        -0.616137        -1.922910
 C         2.745859        -0.667550        -0.476534
 O         3.060074         1.118212         1.101083
 C         1.763824         0.394163         1.365241
 H        -0.415530        -0.659113        -1.319167
 H         0.069529        -1.737353        -0.100455
 H        -0.829930        -0.307983         0.373226
 H         1.572470         0.936837        -1.974221
 H         1.368249         2.194268        -0.372370
 H         4.413446         1.347201        -2.089628
 H         5.131887         0.107782        -0.930343
 H         3.479180        -1.384569         0.065901
 H         1.990882        -0.460617         2.056708
 H         0.830632         1.008692         1.681027
