19
Iteration:   147
 C        -0.043934        -0.688790        -0.263714
 C         1.311290        -0.057869        -0.070419
 C         1.613518         1.415611        -0.358801
 C         3.163276         0.759289        -0.236599
 C         4.078932         0.814730        -1.434416
 O         3.137792        -0.030700        -2.208365
 C         2.641601        -0.530409        -0.927280
 O         3.385270         0.563861         1.203280
 C         2.124166        -0.209700         1.306253
 H        -0.430608        -0.400582        -1.284270
 H        -0.001178        -1.771092        -0.355361
 H        -0.772208        -0.442094         0.497759
 H         1.379213         1.822313        -1.390666
 H         1.244638         2.152640         0.457877
 H         4.242336         1.821342        -1.976200
 H         4.985919         0.255301        -1.190769
 H         3.151577        -1.378787        -0.522783
 H         2.385305        -1.239631         1.302590
 H         1.535588         0.040296         2.186616
