19
Iteration:  3481charge 0 multiplicity 1
 C        -0.043059        -0.715758        -0.123554
 C         1.271121        -0.035445        -0.270832
 C         1.678577         1.246409        -0.993123
 C         3.137149         0.825622        -0.409682
 C         4.262160         0.507572        -1.386243
 O         3.537832        -0.635010        -1.751376
 C         2.695111        -0.635247        -0.449697
 O         3.167197         1.001581         1.050827
 C         1.640600         0.430928         1.240888
 H        -0.762526        -0.044736         0.290331
 H        -0.360741        -1.222581        -0.995463
 H         0.277993        -1.380915         0.652755
 H         1.639766         1.273635        -2.052518
 H         1.245984         2.264920        -0.698371
 H         4.552240         1.174918        -2.333734
 H         5.273961         0.367855        -0.963167
 H         3.091277        -1.306802         0.332864
 H         1.685758        -0.428427         1.959839
 H         1.133972         1.361707         1.551302
