19
Iteration:   267
 C        -0.094908        -0.610402        -0.187927
 C         1.364845        -0.138676        -0.169377
 C         1.753423         1.345572        -0.542820
 C         3.154511         0.766339        -0.233937
 C         4.154714         0.798750        -1.465534
 O         3.080458        -0.064836        -2.122154
 C         2.762432        -0.594997        -0.800358
 O         3.206158         0.695335         1.184908
 C         2.083907        -0.191133         1.322457
 H        -0.234423        -1.626265         0.293502
 H        -0.858607         0.063300         0.250434
 H        -0.332660        -0.689315        -1.239646
 H         1.596392         1.665288        -1.592265
 H         1.317165         1.973477         0.329081
 H         4.294304         1.744933        -2.050185
 H         5.024444         0.282126        -1.349167
 H         3.340907        -1.477142        -0.555774
 H         2.449010        -1.250771         1.472444
 H         1.420684         0.147171         2.192010
