19
Iteration:  4634
 C        -0.023244        -0.800325        -0.371041
 C         1.313363        -0.054932        -0.148297
 C         1.710312         1.263302        -0.896698
 C         3.159196         0.794301        -0.305400
 C         4.173186         0.494743        -1.373048
 O         3.359400        -0.687426        -1.817276
 C         2.755839        -0.664905        -0.375864
 O         3.160722         1.153920         1.024552
 C         1.825781         0.508707         1.266340
 H        -0.911238        -0.127380        -0.355387
 H         0.083218        -1.045197        -1.461930
 H        -0.276415        -1.740620         0.220909
 H         1.625713         1.171512        -1.917109
 H         1.246748         2.170660        -0.475870
 H         4.193677         1.260100        -2.183179
 H         5.178411         0.235476        -1.001887
 H         3.085810        -1.516226         0.180177
 H         2.146372        -0.100602         2.173602
 H         1.090102         1.157044         1.784587
