19
Iteration:  3703charge 0 multiplicity 1
 C         0.020966        -0.806026        -0.278971
 C         1.360956        -0.038867        -0.133100
 C         1.838053         1.250592        -0.891053
 C         3.182534         0.871878        -0.332653
 C         4.180113         0.558203        -1.559006
 O         3.440084        -0.727324        -1.825743
 C         2.701922        -0.607609        -0.447872
 O         3.043145         1.051908         1.134761
 C         1.693498         0.520417         1.293921
 H        -0.796488        -0.034196        -0.311233
 H        -0.014591        -1.613860        -1.100028
 H        -0.020754        -1.363218         0.679145
 H         1.729526         1.063425        -2.081314
 H         1.434965         2.229507        -0.546842
 H         4.165791         1.287445        -2.325649
 H         5.130358         0.361323        -1.029712
 H         3.035977        -1.431416         0.168244
 H         1.679205        -0.399757         1.916942
 H         0.946033         1.143165         1.703943
