19
Iteration:  1923
 C        -0.102927        -0.693044        -0.168960
 C         1.335964        -0.095058        -0.125774
 C         1.733855         1.152438        -0.943440
 C         3.215608         0.717418        -0.316205
 C         4.281440         0.564380        -1.437027
 O         3.483746        -0.600482        -1.881104
 C         2.755201        -0.704199        -0.494671
 O         3.016011         1.134335         1.081681
 C         1.689233         0.481165         1.263839
 H        -0.736820        -0.374463         0.749498
 H        -0.509557        -0.319107        -1.099567
 H        -0.061909        -1.758898        -0.229096
 H         1.712286         1.023219        -2.026300
 H         1.445871         2.165923        -0.616785
 H         4.554288         1.285016        -2.106459
 H         5.251333         0.117814        -1.014413
 H         3.382387        -1.476520        -0.023596
 H         1.819979        -0.117860         2.152088
 H         0.999976         1.254057         1.502132
