19
Iteration:  3508
 C        -0.064995        -0.697211        -0.190675
 C         1.334548        -0.073675        -0.152759
 C         1.834652         1.184722        -0.914564
 C         3.156852         0.729414        -0.381357
 C         4.219377         0.537222        -1.384678
 O         3.470582        -0.639621        -1.842092
 C         2.675207        -0.703419        -0.516535
 O         3.005611         1.202782         1.089476
 C         1.782727         0.425351         1.258063
 H        -0.843569         0.108988        -0.148313
 H        -0.045365        -1.477421        -1.021253
 H        -0.204041        -1.358928         0.718529
 H         1.633790         1.086886        -2.043265
 H         1.719257         2.259265        -0.788024
 H         4.230788         1.257310        -2.132675
 H         5.290955         0.349730        -1.072800
 H         3.136778        -1.412884         0.167435
 H         1.940509        -0.413369         2.017187
 H         1.015364         1.180988         1.565824
