19
Iteration:  1790charge 0 multiplicity 1
 C         0.035372        -0.651208        -0.178603
 C         1.311467        -0.034779        -0.132709
 C         1.708941         1.128907        -0.911754
 C         3.227879         0.700520        -0.349346
 C         4.285967         0.560338        -1.387225
 O         3.440041        -0.583223        -1.849843
 C         2.742514        -0.702709        -0.551879
 O         3.008116         1.066412         1.048650
 C         1.698663         0.492631         1.299423
 H        -0.706002         0.119845         0.040147
 H        -0.126688        -1.238296        -1.105930
 H        -0.166158        -1.322386         0.672191
 H         1.763656         0.951557        -1.993662
 H         1.293289         2.114299        -0.666317
 H         4.290067         1.309349        -2.073872
 H         5.386470         0.340387        -1.103661
 H         3.128170        -1.644566        -0.126137
 H         1.607048        -0.169485         2.124881
 H         0.986513         1.301366         1.427056
