19
Iteration:  2614charge 0 multiplicity 1
 C         0.007874        -0.721170        -0.330175
 C         1.398106        -0.098425        -0.105513
 C         1.698369         1.189596        -0.954401
 C         3.236258         0.721246        -0.243008
 C         4.233641         0.498985        -1.450471
 O         3.321654        -0.595086        -1.851324
 C         2.749313        -0.701557        -0.416907
 O         3.027622         1.219997         1.059748
 C         1.803920         0.469341         1.314345
 H        -0.644897         0.187927        -0.592305
 H         0.153292        -1.223166        -1.276613
 H        -0.330730        -1.475189         0.341546
 H         1.681306         1.024471        -2.069889
 H         1.174431         1.998313        -0.417772
 H         4.251603         1.449190        -2.103727
 H         5.163005         0.097570        -1.085398
 H         3.066339        -1.653113         0.037906
 H         1.980037        -0.427297         1.986948
 H         1.141205         1.150588         1.911961
