19
Iteration:  2862charge 0 multiplicity 1
 C        -0.075207        -0.754665        -0.199098
 C         1.308667        -0.015433        -0.234918
 C         1.700005         1.265038        -0.966633
 C         3.122245         0.788212        -0.444713
 C         4.295134         0.605054        -1.419261
 O         3.516859        -0.683661        -1.727066
 C         2.688902        -0.583132        -0.471239
 O         3.003244         1.112471         1.054206
 C         1.830457         0.298265         1.302835
 H        -0.535897        -0.181236         0.610039
 H        -0.615393        -0.701440        -1.147061
 H         0.063676        -1.697639         0.394137
 H         1.513462         1.088003        -2.128038
 H         1.520549         2.407876        -0.698876
 H         4.574173         1.161532        -2.399774
 H         5.199058         0.317309        -0.841658
 H         2.902776        -1.382667         0.282942
 H         2.247822        -0.540406         1.772283
 H         1.119486         0.847449         1.946286
