19
Iteration:  1180
 C        -0.105739        -0.695637        -0.268120
 C         1.296662        -0.087242        -0.070291
 C         1.761405         1.256231        -0.889677
 C         3.097525         0.874751        -0.352796
 C         4.185388         0.541263        -1.363875
 O         3.452660        -0.623876        -1.882235
 C         2.731736        -0.652204        -0.582443
 O         3.104410         1.178339         1.100659
 C         1.867612         0.249429         1.273346
 H        -0.261736        -1.201783        -1.228654
 H        -0.284924        -1.471162         0.469619
 H        -0.912858        -0.015011         0.010831
 H         1.599835         1.044347        -1.943301
 H         1.447084         2.269445        -0.652308
 H         4.552994         1.171901        -2.258481
 H         5.031735         0.336003        -0.791583
 H         3.236627        -1.452081         0.025023
 H         2.250050        -0.659320         1.802241
 H         1.168502         0.693096         1.947557
