19
Iteration:  4558
 C        -0.120056        -0.703280        -0.181267
 C         1.344905        -0.077188        -0.053343
 C         1.704538         1.127949        -0.963549
 C         3.146980         0.807194        -0.362905
 C         4.282507         0.465474        -1.223155
 O         3.496928        -0.547092        -1.935772
 C         2.694509        -0.712231        -0.552316
 O         3.021496         1.222028         0.971881
 C         1.830416         0.416389         1.295697
 H        -0.819644         0.086554         0.091513
 H        -0.247448        -1.078916        -1.198929
 H        -0.432103        -1.649214         0.325522
 H         1.679648         0.858972        -2.009320
 H         1.193458         2.108211        -0.599063
 H         4.700772         1.278922        -1.909887
 H         5.106962        -0.139756        -0.733586
 H         3.139799        -1.554805        -0.008656
 H         2.217016        -0.382972         1.959461
 H         1.315911         1.209937         1.819522
