19
Iteration:  4089
 C        -0.093962        -0.725244        -0.255918
 C         1.203530        -0.001822        -0.036405
 C         1.659425         1.241342        -0.973268
 C         3.103027         0.867091        -0.447882
 C         4.272777         0.519441        -1.308295
 O         3.545720        -0.697046        -1.795323
 C         2.695522        -0.590458        -0.558033
 O         3.119664         1.065307         0.955100
 C         1.831297         0.348144         1.384749
 H        -0.953081         0.020558        -0.166546
 H        -0.021690        -1.092651        -1.279117
 H        -0.281404        -1.569856         0.540826
 H         1.791261         1.271062        -2.048568
 H         1.253425         2.165975        -0.536555
 H         4.448665         1.220530        -2.139482
 H         5.370066         0.495976        -0.824060
 H         3.150909        -1.286162         0.161798
 H         2.180584        -0.617239         1.938830
 H         1.111277         1.014501         1.964063
