19
Iteration:  1248charge 0 multiplicity 1
 C         0.008603        -0.863202        -0.219975
 C         1.291912         0.026654        -0.161954
 C         1.803903         1.311412        -0.906411
 C         3.162459         0.769020        -0.400017
 C         4.259757         0.514888        -1.399126
 O         3.382782        -0.540034        -1.871874
 C         2.704254        -0.675350        -0.476654
 O         3.082974         1.004196         1.102235
 C         1.763249         0.487925         1.283776
 H        -0.633905        -0.674596        -1.080807
 H         0.222611        -1.854778        -0.292163
 H        -0.663419        -0.801792         0.618529
 H         1.519811         1.326478        -1.989633
 H         1.507866         2.324467        -0.406935
 H         4.374645         1.260885        -2.148918
 H         5.285989         0.248408        -1.046955
 H         3.040771        -1.520938         0.175600
 H         1.666041        -0.390660         1.993164
 H         1.055182         1.221392         1.685430
