19
Iteration:  3753
 C        -0.014305        -0.779088        -0.236909
 C         1.327900        -0.105333        -0.151503
 C         1.701511         1.133645        -1.016203
 C         3.132343         0.854676        -0.302902
 C         4.252154         0.426750        -1.305313
 O         3.368724        -0.530539        -1.798303
 C         2.712807        -0.690058        -0.560897
 O         3.088519         1.241555         1.001779
 C         1.844662         0.420260         1.335179
 H        -0.763196        -0.051203         0.129310
 H        -0.165539        -0.803639        -1.273454
 H        -0.096761        -1.729905         0.256939
 H         1.919138         0.995460        -1.998928
 H         1.313640         2.091645        -0.729843
 H         4.501698         1.147188        -2.172210
 H         5.085791         0.037804        -0.713235
 H         3.134758        -1.491826         0.111101
 H         1.977208        -0.391588         2.063416
 H         1.045653         1.116407         1.762711
