19
Iteration:  1886
 C         0.014478        -0.795338        -0.233338
 C         1.290004        -0.039135        -0.220366
 C         1.740878         1.199286        -1.000023
 C         3.200498         0.743875        -0.263315
 C         4.233985         0.495708        -1.363339
 O         3.378624        -0.571265        -1.788353
 C         2.712395        -0.675106        -0.455213
 O         3.103283         1.168115         1.078986
 C         1.795078         0.483217         1.251124
 H        -0.634133        -0.750933         0.658446
 H        -0.598748        -0.323983        -1.119148
 H         0.067505        -1.898904        -0.597287
 H         1.635431         1.119733        -2.067417
 H         1.419772         2.106771        -0.606729
 H         4.395636         1.190655        -2.288968
 H         5.183552        -0.029977        -1.061934
 H         2.906687        -1.484305         0.254679
 H         1.633834        -0.414780         1.904394
 H         1.190954         1.411153         1.523515
