19
Iteration:  2932
 C         0.100138        -0.862068        -0.307421
 C         1.291123        -0.065430        -0.122299
 C         1.770681         1.175382        -0.905360
 C         3.171005         0.741097        -0.315534
 C         4.174321         0.474673        -1.347966
 O         3.315793        -0.518742        -1.892777
 C         2.750628        -0.664879        -0.452652
 O         3.119243         1.112774         1.059810
 C         1.716128         0.564754         1.281359
 H        -0.715688        -0.173081         0.144607
 H        -0.068534        -1.072672        -1.383342
 H         0.034563        -1.613832         0.468337
 H         1.702150         1.046346        -1.934749
 H         1.493884         2.155399        -0.667491
 H         4.425388         1.336103        -2.124378
 H         5.142732         0.102175        -0.878368
 H         3.246763        -1.462149         0.092295
 H         1.693000        -0.215866         2.012476
 H         1.148611         1.451348         1.466591
