19
Iteration:  4986
 C        -0.017785        -0.820156        -0.236432
 C         1.300042        -0.083847        -0.053038
 C         1.686432         1.280960        -0.959191
 C         3.129226         0.800362        -0.371826
 C         4.289592         0.453604        -1.316698
 O         3.429898        -0.623814        -1.892683
 C         2.656399        -0.628162        -0.540678
 O         3.076708         1.187035         1.066050
 C         1.841251         0.463775         1.300671
 H        -0.904543        -0.077144        -0.059534
 H        -0.019010        -0.924808        -1.337886
 H        -0.046696        -1.722988         0.354072
 H         1.524946         0.896098        -2.027861
 H         1.379170         2.283955        -0.864976
 H         4.702035         1.042129        -2.133457
 H         5.166062        -0.013367        -0.641513
 H         3.137532        -1.415280         0.074077
 H         1.878811        -0.461475         1.992793
 H         1.207466         1.208303         1.826896
