19
Iteration:  3062
 C         0.017057        -0.842632        -0.230718
 C         1.290093         0.034659        -0.201374
 C         1.759889         1.315120        -0.966192
 C         3.139843         0.859495        -0.375939
 C         4.212312         0.502859        -1.371526
 O         3.419442        -0.705749        -1.779340
 C         2.706453        -0.674384        -0.477034
 O         3.071127         1.139570         1.079102
 C         1.832833         0.432626         1.284394
 H        -0.568365        -0.212891         0.459468
 H        -0.420395        -0.946778        -1.234079
 H         0.259884        -1.843229         0.016390
 H         1.640146         1.278513        -2.062380
 H         1.324852         2.353111        -0.538473
 H         4.482221         1.198887        -2.251497
 H         5.086131         0.224058        -0.863733
 H         2.829682        -1.664822         0.004891
 H         1.734224        -0.503694         1.838169
 H         1.038235         1.065313         1.728398
