19
Iteration:  2795
 C        -0.003222        -0.817720        -0.293207
 C         1.371366        -0.038864        -0.103116
 C         1.804452         1.166892        -0.918921
 C         3.218926         0.773205        -0.270173
 C         4.197662         0.570459        -1.442812
 O         3.302579        -0.610897        -1.871985
 C         2.743647        -0.666676        -0.501317
 O         3.118314         1.157972         1.170522
 C         1.697875         0.487387         1.261425
 H        -0.804501        -0.169279        -0.558264
 H         0.102803        -1.441647        -1.187314
 H        -0.202938        -1.418939         0.658681
 H         1.691581         0.949776        -1.993997
 H         1.310925         2.248765        -0.819720
 H         4.434239         1.453270        -2.064953
 H         5.123916        -0.014446        -1.111661
 H         3.220112        -1.569617        -0.057678
 H         1.844609        -0.291877         1.940657
 H         0.931197         1.228619         1.473522
