19
Iteration:  4179
 C         0.038468        -0.829279        -0.330706
 C         1.347179         0.003714        -0.133954
 C         1.712903         1.257586        -0.941691
 C         3.108486         0.793138        -0.332283
 C         4.194170         0.512720        -1.305800
 O         3.366874        -0.624541        -1.856629
 C         2.689570        -0.659240        -0.456484
 O         3.125488         1.070693         1.046194
 C         1.809669         0.500434         1.281177
 H        -0.905025        -0.410844         0.159288
 H        -0.307647        -1.007062        -1.399062
 H         0.087575        -1.794017         0.217789
 H         1.899540         1.135676        -2.044891
 H         1.452940         2.203684        -0.532427
 H         4.452022         1.158333        -2.146177
 H         5.201721         0.158244        -0.777127
 H         3.095236        -1.372968         0.210278
 H         1.979406        -0.125120         2.205026
 H         1.113944         1.386766         1.539823
