19
Iteration:  3228charge 0 multiplicity 1
 C        -0.023071        -0.725785        -0.246965
 C         1.395060        -0.053385        -0.139789
 C         1.831659         1.146777        -0.942124
 C         3.203393         0.796335        -0.304198
 C         4.260573         0.418012        -1.348439
 O         3.289091        -0.597465        -1.830567
 C         2.783519        -0.698589        -0.490342
 O         2.962007         1.254753         1.032147
 C         1.767669         0.476296         1.265111
 H        -0.671910        -0.207535         0.495235
 H        -0.342232        -0.930286        -1.263281
 H         0.174880        -1.744859         0.055382
 H         1.580870         0.864652        -2.050497
 H         1.507368         2.188163        -0.632466
 H         4.503043         1.227464        -2.124130
 H         5.129051        -0.010472        -0.993088
 H         3.205775        -1.638392        -0.065695
 H         2.107404        -0.280742         2.017620
 H         0.911550         1.127781         1.647884
