19
Iteration:  3702
 C         0.016130        -0.806409        -0.281413
 C         1.367880        -0.027701        -0.145379
 C         1.833264         1.252456        -0.894452
 C         3.187167         0.874807        -0.333777
 C         4.173639         0.560211        -1.548683
 O         3.436539        -0.737083        -1.827162
 C         2.706417        -0.601167        -0.437572
 O         3.041155         1.053489         1.135880
 C         1.701515         0.501766         1.289946
 H        -0.828203        -0.001208        -0.293642
 H        -0.022197        -1.638913        -1.070153
 H        -0.006807        -1.369405         0.678629
 H         1.750188         1.096658        -2.066606
 H         1.445919         2.217477        -0.577277
 H         4.160402         1.302994        -2.345973
 H         5.103295         0.397396        -1.035237
 H         3.035980        -1.440725         0.193838
 H         1.680494        -0.397384         1.936652
 H         0.963848         1.141285         1.688956
