19
Iteration:   887
 C        -0.079176        -0.705424        -0.200796
 C         1.377882        -0.100030        -0.177116
 C         1.890063         1.201427        -0.784828
 C         3.170506         0.756551        -0.229821
 C         4.090523         0.679871        -1.452995
 O         3.345359        -0.416634        -1.974905
 C         2.793944        -0.708710        -0.590990
 O         3.151426         0.960592         1.104872
 C         1.719952         0.291868         1.315119
 H        -0.771685         0.141341        -0.484281
 H        -0.363566        -1.434655        -1.098195
 H        -0.400319        -1.173266         0.786015
 H         1.752375         1.188298        -1.889872
 H         1.390311         2.096322        -0.328895
 H         4.219496         1.562998        -1.966487
 H         5.142749         0.188605        -1.196435
 H         3.209130        -1.586278        -0.196888
 H         1.889295        -0.428850         2.076024
 H         1.178023         1.174185         1.506059
