19
Iteration:  2861charge 0 multiplicity 1
 C        -0.075827        -0.750768        -0.197500
 C         1.304300        -0.015887        -0.235609
 C         1.695879         1.260015        -0.967718
 C         3.130307         0.797407        -0.441421
 C         4.295457         0.592081        -1.422825
 O         3.523687        -0.678225        -1.730989
 C         2.685731        -0.584681        -0.478331
 O         3.007431         1.110525         1.053368
 C         1.826939         0.309621         1.307228
 H        -0.533692        -0.213548         0.595855
 H        -0.608935        -0.733981        -1.148009
 H         0.046114        -1.689637         0.411665
 H         1.525428         1.076758        -2.123409
 H         1.462205         2.412896        -0.678090
 H         4.561914         1.167629        -2.327321
 H         5.200370         0.301449        -0.855475
 H         2.897542        -1.379891         0.278950
 H         2.260763        -0.559718         1.782133
 H         1.091536         0.828442         1.967096
