19
Iteration:   577
 C        -0.042888        -0.732547        -0.197024
 C         1.361555        -0.156706        -0.139713
 C         1.660461         1.263431        -0.644245
 C         3.152351         0.799700        -0.303246
 C         4.242651         0.657561        -1.326066
 O         3.200902        -0.169953        -2.062441
 C         2.683897        -0.633176        -0.760490
 O         3.229905         0.863547         1.098106
 C         1.929787         0.085511         1.307724
 H        -0.330653        -0.995958        -1.183148
 H        -0.129225        -1.520818         0.512383
 H        -0.678391         0.191653         0.017449
 H         1.404860         1.407278        -1.739852
 H         1.215939         2.096114         0.057650
 H         4.666200         1.540740        -1.929581
 H         5.123531        -0.022922        -1.146873
 H         3.281180        -1.533236        -0.605534
 H         2.201594        -0.805239         2.002027
 H         1.250665         0.566126         2.023891
