19
Iteration:  1352charge 0 multiplicity 1
 C        -0.081269        -0.743115        -0.166182
 C         1.270179        -0.037354        -0.109708
 C         1.715403         1.228781        -0.899964
 C         3.225596         0.779685        -0.295065
 C         4.290067         0.650275        -1.498239
 O         3.431705        -0.584687        -1.866613
 C         2.764689        -0.602258        -0.540750
 O         3.123608         0.975176         1.136533
 C         1.737855         0.348026         1.237592
 H        -0.064130        -1.521045        -0.953216
 H        -0.334223        -1.286759         0.849658
 H        -0.951081        -0.118597        -0.488228
 H         1.550648         1.146985        -1.980438
 H         1.541256         2.372919        -0.592990
 H         4.156177         1.482998        -2.292846
 H         5.268903         0.224840        -1.193244
 H         2.993984        -1.513227         0.013052
 H         1.514945        -0.387977         2.025457
 H         1.130940         1.280274         1.396330
