19
Iteration:  1928charge 0 multiplicity 1
 C        -0.127083        -0.676378        -0.186617
 C         1.329224        -0.089324        -0.129388
 C         1.704904         1.182688        -0.940200
 C         3.175207         0.714952        -0.315083
 C         4.289114         0.497708        -1.433480
 O         3.507002        -0.584739        -1.844602
 C         2.766586        -0.698394        -0.503619
 O         3.050977         1.134413         1.069288
 C         1.715780         0.480533         1.260275
 H        -0.639077        -0.439696         0.687601
 H        -0.619424        -0.466273        -1.166449
 H        -0.094065        -1.805379        -0.139247
 H         1.708933         1.000924        -2.036852
 H         1.287685         2.193087        -0.560527
 H         4.524597         1.471576        -2.107490
 H         5.254942         0.221752        -1.071765
 H         3.334860        -1.504023        -0.016732
 H         1.987624        -0.172866         2.130763
 H         0.838700         1.183752         1.493818
