19
Iteration:  2597
 C        -0.004314        -0.678001        -0.315107
 C         1.358464        -0.119480        -0.123501
 C         1.801989         1.097063        -0.901687
 C         3.139839         0.792276        -0.343355
 C         4.198732         0.564463        -1.422112
 O         3.383602        -0.595484        -1.848097
 C         2.760259        -0.699851        -0.534052
 O         3.085956         1.137374         1.142708
 C         1.739410         0.499944         1.319298
 H        -0.717170         0.097403        -0.367614
 H        -0.080246        -1.489866        -1.093336
 H        -0.248908        -1.132579         0.711611
 H         1.714918         0.809053        -1.980353
 H         1.428081         2.119135        -0.668141
 H         4.155899         1.178515        -2.284325
 H         5.234201         0.189123        -1.104680
 H         3.201500        -1.509836         0.060796
 H         1.733900        -0.159000         2.215610
 H         0.890177         1.172670         1.476374
