19
Iteration:  4044charge 0 multiplicity 1
 C        -0.040136        -0.754730        -0.218535
 C         1.422087        -0.100521        -0.133592
 C         1.889722         1.169677        -0.995176
 C         3.217618         0.738351        -0.242713
 C         4.243971         0.569548        -1.457296
 O         3.265589        -0.539433        -1.847181
 C         2.786742        -0.696502        -0.504880
 O         3.012761         1.167785         1.102121
 C         1.656159         0.428070         1.294415
 H        -0.733259         0.091471        -0.153151
 H        -0.059482        -1.294509        -1.168632
 H        -0.155051        -1.479044         0.662315
 H         1.852728         0.821014        -1.966793
 H         1.566896         2.231526        -0.853668
 H         4.540950         1.386649        -2.154705
 H         5.254835         0.007750        -1.319902
 H         3.134215        -1.568646         0.096800
 H         1.778951        -0.340657         2.172210
 H         1.000535         1.268275         1.533571
