19
Iteration:  3203
 C        -0.081937        -0.741389        -0.177123
 C         1.301947        -0.039783        -0.129273
 C         1.725763         1.202671        -1.002327
 C         3.105599         0.789155        -0.414107
 C         4.303885         0.432955        -1.297642
 O         3.495335        -0.614789        -1.891869
 C         2.648096        -0.659107        -0.447054
 O         3.019084         1.242700         1.006277
 C         1.853070         0.406583         1.333985
 H        -0.767907         0.041451         0.100035
 H        -0.219304        -1.193508        -1.188917
 H        -0.189378        -1.638723         0.418261
 H         1.657417         0.946197        -2.060466
 H         1.420293         2.289832        -0.829777
 H         4.662474         1.280753        -1.964676
 H         5.240435         0.085515        -0.749601
 H         3.063531        -1.573532         0.047933
 H         2.334790        -0.456958         1.875639
 H         1.041796         0.906594         1.949905
