19
Iteration:  2636
 C         0.026769        -0.813716        -0.357813
 C         1.299738        -0.002347        -0.108631
 C         1.773791         1.220083        -0.901556
 C         3.131391         0.884694        -0.362403
 C         4.214910         0.487250        -1.423347
 O         3.338618        -0.667596        -1.779841
 C         2.665262        -0.651567        -0.455896
 O         3.082601         1.191149         1.033737
 C         1.829521         0.373096         1.322866
 H        -0.882986        -0.076983        -0.296949
 H        -0.120259        -1.053842        -1.405355
 H         0.024060        -1.726353         0.204850
 H         1.827043         1.094158        -2.040640
 H         1.553732         2.218474        -0.459878
 H         4.662087         1.292846        -2.148274
 H         4.962725        -0.013554        -0.777788
 H         3.195326        -1.331777         0.234059
 H         2.329858        -0.421554         2.020092
 H         1.159562         1.094772         1.880095
