19
Iteration:  1140
 C        -0.033501        -0.751884        -0.212946
 C         1.336498        -0.061103        -0.083720
 C         1.771702         1.288425        -0.837059
 C         3.112950         0.795930        -0.371138
 C         4.195563         0.623906        -1.370809
 O         3.398565        -0.552285        -1.872554
 C         2.707479        -0.674949        -0.542168
 O         3.137881         1.017599         1.013733
 C         1.769403         0.336485         1.254944
 H         0.064502        -1.608026        -0.886693
 H        -0.316384        -1.049925         0.803791
 H        -0.661767        -0.097024        -0.773241
 H         1.644526         1.195960        -1.938729
 H         1.519082         2.344537        -0.425108
 H         4.420198         1.345720        -2.097453
 H         5.075993         0.059078        -0.888739
 H         3.052367        -1.506691         0.069201
 H         2.030667        -0.428963         2.005487
 H         1.021587         1.039125         1.654675
