19
Iteration:  2037
 C        -0.006159        -0.784040        -0.254167
 C         1.314163        -0.032166        -0.100500
 C         1.740843         1.190937        -0.966512
 C         3.178610         0.804723        -0.284058
 C         4.279650         0.530344        -1.466910
 O         3.410286        -0.600440        -1.862332
 C         2.689237        -0.711700        -0.487529
 O         3.091186         1.070832         1.120788
 C         1.761021         0.504871         1.305269
 H        -0.859244        -0.127870        -0.440081
 H         0.105339        -1.452968        -1.147893
 H        -0.331592        -1.440494         0.602878
 H         1.549704         0.971718        -2.072871
 H         1.311531         2.344175        -0.702099
 H         4.289209         1.498948        -2.230978
 H         5.308333         0.459889        -1.077869
 H         3.061951        -1.567449         0.166682
 H         1.646391        -0.218721         2.094929
 H         1.165204         1.387543         1.559388
