19
Iteration:  1561
 C         0.021394        -0.714261        -0.285347
 C         1.337969        -0.054837        -0.171754
 C         1.728136         1.258470        -0.821631
 C         3.130965         0.845148        -0.317953
 C         4.167950         0.572691        -1.412721
 O         3.404274        -0.646738        -1.842241
 C         2.760898        -0.645471        -0.592873
 O         3.152010         0.970280         1.122511
 C         1.746442         0.432923         1.304339
 H         0.029696        -1.645501        -0.816294
 H        -0.215659        -0.931739         0.771707
 H        -0.773925        -0.166986        -0.648994
 H         1.728401         1.162428        -1.961574
 H         1.153077         2.247649        -0.569324
 H         3.973342         1.320256        -2.251986
 H         5.185015         0.400189        -1.217922
 H         3.276721        -1.309772         0.077584
 H         1.727024        -0.423234         2.066529
 H         1.051078         1.248235         1.474849
