19
Iteration:   897
 C        -0.087760        -0.651256        -0.268123
 C         1.382543        -0.174217        -0.142114
 C         1.798597         1.183465        -0.856314
 C         3.220627         0.748786        -0.285883
 C         4.199030         0.681071        -1.434076
 O         3.283200        -0.386067        -1.912422
 C         2.742655        -0.696967        -0.555083
 O         3.121373         0.962178         1.141028
 C         1.832033         0.314364         1.318714
 H        -0.853449         0.156705        -0.117409
 H        -0.228279        -1.299924        -1.218062
 H        -0.220487        -1.376026         0.620995
 H         1.720838         1.145362        -1.972500
 H         1.358143         2.152666        -0.455640
 H         4.157391         1.448702        -2.136796
 H         5.271746         0.304336        -1.365992
 H         3.127124        -1.605712        -0.154913
 H         1.878879        -0.524577         1.994559
 H         1.019665         0.939579         1.655957
