19
Iteration:   202charge 0 multiplicity 1
 C        -0.008868        -0.668562        -0.179068
 C         1.356557        -0.144884        -0.147516
 C         1.750578         1.340550        -0.439598
 C         3.235799         0.802953        -0.215314
 C         4.076735         0.898474        -1.493505
 O         3.136053        -0.012922        -2.158416
 C         2.630485        -0.546339        -0.889389
 O         3.345457         0.447967         1.194029
 C         1.934471        -0.104933         1.303977
 H        -0.732450        -0.063102         0.433292
 H        -0.411602        -0.946524        -1.144207
 H         0.082681        -1.642844         0.234024
 H         1.671884         1.571991        -1.530694
 H         1.280639         2.170801         0.250230
 H         4.169818         1.896057        -2.052177
 H         5.055913         0.479146        -1.333250
 H         3.014058        -1.513496        -0.598823
 H         1.952530        -1.022232         1.887483
 H         1.261082         0.600809         1.831822
