19
Iteration:  3492charge 0 multiplicity 1
 C        -0.069746        -0.744518        -0.104894
 C         1.306466        -0.032090        -0.240457
 C         1.782352         1.285004        -1.002817
 C         3.138919         0.834872        -0.310521
 C         4.243588         0.601387        -1.366296
 O         3.484271        -0.734527        -1.767834
 C         2.769947        -0.641461        -0.515953
 O         3.096898         1.034117         1.026610
 C         1.697707         0.451151         1.197910
 H        -0.856829        -0.021003         0.060300
 H        -0.397238        -1.347174        -0.916542
 H        -0.196639        -1.422102         0.714011
 H         1.909719         1.267530        -2.049998
 H         1.172134         2.132749        -0.566873
 H         4.225649         1.346255        -2.277747
 H         5.159738         0.212133        -0.942520
 H         3.031614        -1.518325         0.099264
 H         1.880814        -0.320340         1.982018
 H         1.102986         1.240850         1.701098
