19
Iteration:  4980charge 0 multiplicity 1
 C        -0.023659        -0.808077        -0.257238
 C         1.355055        -0.080953        -0.056336
 C         1.710872         1.234145        -0.951741
 C         3.138830         0.814533        -0.354518
 C         4.332971         0.524991        -1.298053
 O         3.340806        -0.644267        -1.872588
 C         2.678658        -0.641074        -0.509101
 O         3.091159         1.176309         1.051229
 C         1.804814         0.456508         1.281022
 H        -0.831891        -0.162912        -0.005711
 H        -0.038395        -1.075832        -1.316716
 H        -0.210280        -1.761750         0.320431
 H         1.746492         1.031951        -1.989938
 H         1.393412         2.331994        -0.856180
 H         4.599396         1.167607        -2.154811
 H         5.083576        -0.073829        -0.897916
 H         3.181109        -1.486927        -0.039906
 H         1.799475        -0.318343         2.042848
 H         1.148516         1.258729         1.624710
