19
Iteration:  4617
 C        -0.019242        -0.809151        -0.312359
 C         1.321292        -0.025795        -0.144393
 C         1.791564         1.208035        -0.889000
 C         3.161498         0.786702        -0.372838
 C         4.227375         0.574992        -1.505325
 O         3.434824        -0.704788        -1.752176
 C         2.661823        -0.629446        -0.545586
 O         3.093272         1.085511         1.109605
 C         1.735616         0.515391         1.381394
 H        -0.880073        -0.128868        -0.286693
 H        -0.100026        -1.357159        -1.252855
 H         0.036900        -1.369696         0.568484
 H         1.733023         1.176143        -2.051442
 H         1.545859         2.294817        -0.572384
 H         4.224314         1.224888        -2.362928
 H         5.322914         0.278011        -1.307513
 H         3.050418        -1.362562         0.241841
 H         1.617811        -0.297070         2.083074
 H         1.195847         1.416398         1.714636
