19
Iteration:  1685charge 0 multiplicity 1
 C        -0.031405        -0.728873        -0.279583
 C         1.288691        -0.078806        -0.170673
 C         1.780696         1.157114        -0.903080
 C         3.186919         0.795820        -0.307388
 C         4.204323         0.603081        -1.395379
 O         3.425390        -0.612272        -1.870815
 C         2.660242        -0.680894        -0.439861
 O         3.171238         1.042024         1.105486
 C         1.756305         0.521371         1.272047
 H        -0.546092        -0.608676        -1.243103
 H         0.051638        -1.792214        -0.212762
 H        -0.632437        -0.439622         0.620631
 H         1.675094         0.986535        -1.960671
 H         1.296599         2.089231        -0.615107
 H         4.132256         1.390677        -2.264264
 H         5.190099         0.406758        -1.165210
 H         3.098115        -1.575714        -0.042526
 H         1.776604        -0.275907         2.079271
 H         1.024239         1.295885         1.570039
