19
Iteration:  3967
 C        -0.041138        -0.697508        -0.254061
 C         1.312021        -0.046298        -0.082566
 C         1.777157         1.234376        -1.016190
 C         3.091320         0.829659        -0.378322
 C         4.312496         0.478063        -1.360579
 O         3.437894        -0.654006        -1.828949
 C         2.785916        -0.639494        -0.517941
 O         2.973947         1.197988         1.047917
 C         1.799964         0.343073         1.345962
 H        -0.790220        -0.247588         0.445721
 H        -0.453248        -0.536348        -1.297067
 H         0.070385        -1.794056         0.106050
 H         1.638448         0.863286        -1.959074
 H         1.446206         2.205523        -0.670826
 H         4.260461         1.190184        -2.222381
 H         5.328358         0.208783        -0.853216
 H         2.989657        -1.540513         0.058094
 H         2.152626        -0.573856         1.988557
 H         1.069206         0.924304         1.893730
