19
Iteration:  4393
 C        -0.108976        -0.692553        -0.175747
 C         1.284039        -0.131337        -0.240672
 C         1.726155         1.191753        -0.952342
 C         3.212402         0.747700        -0.321875
 C         4.233814         0.664567        -1.382650
 O         3.497562        -0.682249        -1.770057
 C         2.758701        -0.629605        -0.479432
 O         3.097732         1.105951         1.031733
 C         1.733611         0.390227         1.219491
 H        -0.801468         0.112123        -0.052040
 H        -0.308786        -1.388320        -0.974842
 H        -0.151581        -1.341191         0.774069
 H         1.828844         1.134343        -2.140846
 H         1.339005         2.166601        -0.536114
 H         4.137455         1.494084        -2.190425
 H         5.240872         0.543213        -1.058898
 H         2.884883        -1.449193         0.280044
 H         1.894554        -0.314568         2.024605
 H         1.095356         1.188586         1.514645
