19
Iteration:  2287
 C        -0.033337        -0.803634        -0.216734
 C         1.278062        -0.043797        -0.201771
 C         1.734729         1.197939        -0.924024
 C         3.205514         0.848151        -0.348116
 C         4.277393         0.433243        -1.357340
 O         3.393369        -0.627702        -1.894918
 C         2.740508        -0.632846        -0.530087
 O         3.054557         1.206410         1.091503
 C         1.777089         0.469829         1.340418
 H        -0.910438        -0.319433         0.274204
 H        -0.493566        -0.879033        -1.215492
 H         0.219632        -1.799298         0.134556
 H         1.706187         1.098427        -1.973952
 H         1.467023         2.140878        -0.581625
 H         4.473854         0.998487        -2.205668
 H         5.161739         0.025359        -0.784674
 H         3.230980        -1.371273         0.106754
 H         2.017243        -0.456310         2.005474
 H         0.954925         1.103786         1.774977
