19
Iteration:  1716
 C         0.001519        -0.692018        -0.353565
 C         1.363897        -0.113641        -0.145937
 C         1.822709         1.168839        -0.894659
 C         3.169902         0.837330        -0.320379
 C         4.229783         0.483294        -1.368660
 O         3.319017        -0.638539        -1.890946
 C         2.760215        -0.649288        -0.481943
 O         3.019020         1.183362         1.073753
 C         1.789729         0.436067         1.376699
 H        -0.801048        -0.232886        -0.954226
 H         0.073273        -1.719630        -0.535140
 H        -0.493495        -0.685871         0.563256
 H         1.576513         1.045331        -1.979334
 H         1.353599         2.135592        -0.435716
 H         4.423508         1.205030        -2.276062
 H         5.181536         0.101072        -1.084054
 H         3.308624        -1.467120        -0.061935
 H         2.061540        -0.391088         2.135686
 H         1.007529         1.068785         1.794400
