19
Iteration:  3651
 C        -0.138694        -0.674616        -0.246085
 C         1.300428        -0.101923        -0.060708
 C         1.722324         1.142773        -0.924163
 C         3.065601         0.749066        -0.334260
 C         4.301299         0.518873        -1.279084
 O         3.478977        -0.626786        -1.929307
 C         2.783019        -0.717910        -0.606990
 O         3.019332         1.236633         0.992586
 C         1.861576         0.454910         1.401288
 H        -0.895171        -0.044192         0.022356
 H        -0.102341        -0.983338        -1.292195
 H        -0.148710        -1.681246         0.149423
 H         1.540115         0.920190        -2.039902
 H         1.295855         2.163007        -0.791890
 H         4.622162         1.332253        -1.896435
 H         5.232230         0.028461        -0.749312
 H         3.396992        -1.347015         0.026792
 H         2.053017        -0.316953         2.200707
 H         1.039455         1.140482         1.784953
