19
Iteration:  1175
 C        -0.096642        -0.676744        -0.283289
 C         1.260697        -0.084404        -0.103450
 C         1.725360         1.280450        -0.857198
 C         3.101119         0.872907        -0.338784
 C         4.173341         0.537043        -1.412120
 O         3.489528        -0.635506        -1.907955
 C         2.741024        -0.664379        -0.556533
 O         3.099137         1.180306         1.112313
 C         1.894256         0.256077         1.277413
 H        -0.187318        -1.410976        -1.120603
 H        -0.359703        -1.488469         0.571643
 H        -0.993337        -0.064897        -0.008044
 H         1.704169         1.181201        -1.963121
 H         1.328727         2.303559        -0.626124
 H         4.616571         1.111889        -2.186865
 H         5.085635         0.213803        -0.727770
 H         3.071545        -1.425563         0.166500
 H         2.328089        -0.634738         1.715008
 H         1.153660         0.673610         2.023185
