19
Iteration:  1282charge 0 multiplicity 1
 C        -0.098664        -0.819453        -0.299585
 C         1.333428        -0.040731        -0.156481
 C         1.768370         1.298979        -0.889063
 C         3.117548         0.889232        -0.402374
 C         4.281138         0.488234        -1.344875
 O         3.332026        -0.601182        -1.876834
 C         2.731347        -0.630431        -0.519840
 O         3.042419         1.138673         1.085574
 C         1.933473         0.309225         1.359242
 H        -0.391933        -0.654183        -1.343816
 H         0.029155        -1.817636        -0.078749
 H        -0.795207        -0.293912         0.299432
 H         1.625677         1.088293        -2.001876
 H         1.355568         2.423006        -0.572830
 H         4.466726         1.144534        -2.115149
 H         5.123779         0.014739        -0.711960
 H         3.140307        -1.387374         0.187627
 H         2.217605        -0.606162         1.972075
 H         1.189385         0.972686         1.889423
