19
Iteration:  4338
 C        -0.000598        -0.836612        -0.304565
 C         1.336044        -0.029932        -0.122653
 C         1.783338         1.214788        -0.893290
 C         3.199373         0.755345        -0.378845
 C         4.268302         0.430923        -1.378831
 O         3.316113        -0.607146        -1.827424
 C         2.767189        -0.668934        -0.501736
 O         3.020099         1.297607         1.071501
 C         1.765533         0.444307         1.320744
 H        -0.893505        -0.460888         0.143948
 H        -0.176497        -0.739901        -1.351871
 H         0.231587        -1.890278         0.004653
 H         1.571480         1.190711        -2.064392
 H         1.548110         2.232575        -0.510638
 H         4.507549         1.122744        -2.242392
 H         5.108206         0.114221        -0.845686
 H         3.033705        -1.485042         0.213951
 H         1.971382        -0.470450         1.883442
 H         1.039831         1.048656         1.806136
