19
Iteration:  3060charge 0 multiplicity 1
 C         0.014998        -0.826644        -0.216950
 C         1.296518         0.017977        -0.212872
 C         1.766590         1.282700        -0.968994
 C         3.149436         0.856149        -0.359511
 C         4.202181         0.517311        -1.378141
 O         3.430139        -0.700048        -1.798815
 C         2.699960        -0.667040        -0.460196
 O         3.080107         1.152810         1.091492
 C         1.822721         0.419999         1.281189
 H        -0.558859        -0.215868         0.417297
 H        -0.453561        -0.879084        -1.211689
 H         0.271527        -1.839367         0.065634
 H         1.648761         1.347190        -2.090356
 H         1.346524         2.331295        -0.632452
 H         4.415449         1.167171        -2.217338
 H         5.046949         0.189310        -0.907993
 H         2.789620        -1.689405        -0.023143
 H         1.671030        -0.527786         1.872189
 H         0.989242         1.089559         1.664423
