19
Iteration:  2479
 C         0.043251        -0.732552        -0.338796
 C         1.344372        -0.043733        -0.105702
 C         1.771683         1.209522        -0.878243
 C         3.139747         0.824285        -0.309481
 C         4.216411         0.553766        -1.493166
 O         3.388978        -0.702424        -1.769337
 C         2.765322        -0.687700        -0.423655
 O         3.082688         1.047220         1.020002
 C         1.699266         0.566239         1.281326
 H        -0.691290        -0.458303         0.396317
 H        -0.364840        -0.782325        -1.374381
 H         0.225528        -1.828334        -0.106467
 H         1.794803         1.155108        -1.957084
 H         1.498622         2.118765        -0.518124
 H         3.964241         1.355962        -2.217058
 H         5.225293         0.380595        -1.244024
 H         3.021974        -1.598903         0.172805
 H         1.702440        -0.104080         2.183087
 H         1.072854         1.383298         1.699274
