19
Iteration:  4317charge 0 multiplicity 1
 C         0.059403        -0.887740        -0.294162
 C         1.383306        -0.003382        -0.252024
 C         1.769365         1.365695        -0.924307
 C         3.157068         0.907520        -0.362137
 C         4.214844         0.434936        -1.302283
 O         3.320276        -0.688433        -1.747243
 C         2.665530        -0.588699        -0.459964
 O         3.042667         1.166204         0.998359
 C         1.844829         0.387004         1.298289
 H        -0.662415        -0.364458         0.304649
 H        -0.431352        -0.963359        -1.231309
 H         0.290431        -1.874274         0.222196
 H         1.976341         1.225567        -2.094353
 H         1.151375         2.249796        -0.587254
 H         4.387263         1.154573        -2.127275
 H         5.119956         0.051279        -0.930149
 H         2.845591        -1.425514         0.354795
 H         2.088095        -0.586364         1.698088
 H         1.048201         0.931458         1.761840
