19
Iteration:  1344charge 0 multiplicity 1
 C        -0.089629        -0.712396        -0.178090
 C         1.311003        -0.073408        -0.186943
 C         1.735138         1.208704        -0.861690
 C         3.216337         0.797291        -0.302778
 C         4.252997         0.624309        -1.473269
 O         3.420359        -0.545126        -1.873159
 C         2.790228        -0.636869        -0.476220
 O         3.145609         0.947886         1.095588
 C         1.668244         0.394825         1.261402
 H        -0.198652        -1.530826        -0.953024
 H        -0.344520        -1.206468         0.830111
 H        -0.969222         0.015970        -0.430164
 H         1.676342         0.989761        -1.905660
 H         1.405124         2.128898        -0.669661
 H         4.152009         1.470196        -2.273221
 H         5.289192         0.453314        -1.390434
 H         3.317515        -1.446213         0.049274
 H         1.553700        -0.389171         2.001555
 H         1.212018         1.257370         1.626427
