19
Iteration:  4039charge 0 multiplicity 1
 C        -0.018334        -0.777158        -0.227116
 C         1.379099        -0.057816        -0.096144
 C         1.893408         1.166245        -0.992067
 C         3.285802         0.777931        -0.251617
 C         4.241068         0.565725        -1.423095
 O         3.269555        -0.550175        -1.888189
 C         2.764261        -0.706715        -0.505089
 O         3.014552         1.132731         1.101813
 C         1.665477         0.456177         1.295906
 H        -0.865232        -0.068322        -0.137025
 H        -0.164769        -1.271264        -1.204173
 H        -0.166083        -1.440879         0.573409
 H         1.792063         0.635120        -2.023729
 H         1.670989         2.199216        -0.789523
 H         4.374669         1.308934        -2.281185
 H         5.167593         0.186184        -1.119254
 H         3.183847        -1.484765         0.188473
 H         1.786634        -0.264939         2.043217
 H         0.897717         1.211438         1.555910
