19
Iteration:   412charge 0 multiplicity 1
 C        -0.025722        -0.684542        -0.174307
 C         1.330819        -0.122513        -0.043554
 C         1.662772         1.362288        -0.593292
 C         3.118659         0.812350        -0.321073
 C         4.104563         0.887674        -1.452701
 O         3.346436        -0.244648        -2.152704
 C         2.638868        -0.513127        -0.782471
 O         3.332314         0.527403         1.140795
 C         1.903101         0.005737         1.370425
 H        -0.663976         0.150307        -0.051041
 H        -0.231566        -1.088410        -1.153059
 H        -0.173230        -1.425901         0.683316
 H         1.500010         1.309593        -1.713835
 H         1.267312         2.331844        -0.021723
 H         4.155108         1.780961        -2.031920
 H         5.058390         0.573619        -1.182243
 H         3.158918        -1.451657        -0.514295
 H         1.900374        -0.905304         2.099784
 H         1.134339         0.639905         1.861092
