19
Iteration:  4930
 C        -0.011284        -0.716174        -0.313962
 C         1.334205        -0.069387        -0.128168
 C         1.833012         1.182283        -0.880286
 C         3.209837         0.776480        -0.321130
 C         4.204576         0.609191        -1.501576
 O         3.419503        -0.749344        -1.817389
 C         2.724769        -0.590997        -0.535116
 O         3.059752         1.109496         1.098481
 C         1.675497         0.493885         1.379902
 H        -0.922109        -0.049180        -0.161397
 H         0.016066        -1.354289        -1.252202
 H        -0.031192        -1.530466         0.427757
 H         1.531882         0.906733        -1.902024
 H         1.398078         2.160143        -0.668880
 H         4.082826         1.284657        -2.406455
 H         5.246729         0.325889        -1.159795
 H         3.201455        -1.375861         0.107506
 H         1.830986        -0.295235         2.170898
 H         1.086912         1.359815         1.784669
