19
Iteration:  2419charge 0 multiplicity 1
 C        -0.062302        -0.681417        -0.186571
 C         1.284680        -0.140342        -0.056857
 C         1.692616         1.137764        -0.984941
 C         3.181297         0.814669        -0.392929
 C         4.300245         0.472178        -1.258810
 O         3.388467        -0.535697        -1.903606
 C         2.725413        -0.682837        -0.472981
 O         3.008358         1.228939         1.001165
 C         1.860917         0.363683         1.276490
 H        -0.902575         0.117539        -0.383377
 H         0.077337        -1.289465        -1.082789
 H        -0.163764        -1.327696         0.701245
 H         1.730348         1.190123        -2.069376
 H         1.505893         2.264005        -0.570474
 H         4.763118         1.131526        -1.923005
 H         5.189811        -0.062029        -0.842539
 H         3.123691        -1.655794        -0.200972
 H         2.152149        -0.542450         1.916791
 H         1.128047         1.104479         1.641791
