19
Iteration:  3070charge 0 multiplicity 1
 C         0.031424        -0.840158        -0.264410
 C         1.301959         0.039763        -0.170299
 C         1.733829         1.384910        -0.927089
 C         3.107386         0.844224        -0.401082
 C         4.263047         0.465537        -1.357067
 O         3.401304        -0.705434        -1.733880
 C         2.687620        -0.650965        -0.539328
 O         3.054574         1.104454         1.020387
 C         1.811838         0.456417         1.276760
 H        -0.778344        -0.565794         0.396455
 H        -0.363733        -0.955891        -1.285114
 H         0.258136        -1.865553         0.099807
 H         1.638338         1.164021        -2.002278
 H         1.361043         2.293020        -0.411620
 H         4.512273         1.096630        -2.170843
 H         5.157370         0.221104        -0.817871
 H         3.061122        -1.401754         0.208898
 H         2.171328        -0.461890         1.864912
 H         1.194479         1.119179         1.951020
