19
Iteration:  3265
 C         0.007184        -0.810544        -0.313101
 C         1.266573         0.009745        -0.138487
 C         1.734857         1.246551        -0.897662
 C         3.155976         0.845859        -0.381436
 C         4.160099         0.513847        -1.436785
 O         3.476684        -0.762042        -1.771951
 C         2.730733        -0.625475        -0.509824
 O         3.149442         1.038445         1.110770
 C         1.746009         0.616276         1.323614
 H        -0.938719        -0.593231         0.232283
 H        -0.437923        -0.762610        -1.338228
 H         0.302302        -1.863631         0.066304
 H         1.706337         0.951099        -1.925097
 H         1.383696         2.266703        -0.879270
 H         4.143223         1.234634        -2.179583
 H         5.244274         0.293599        -1.190997
 H         2.882261        -1.440515         0.169662
 H         1.793756        -0.031656         2.177340
 H         1.047071         1.384760         1.526988
