19
Iteration:     9
 C         0.009903        -0.727307        -0.226589
 C         1.347719        -0.104949        -0.058991
 C         1.737162         1.416194        -0.299709
 C         3.153849         0.745443        -0.249354
 C         4.030411         0.942403        -1.448808
 O         3.095784         0.100670        -2.180794
 C         2.585294        -0.487512        -0.881414
 O         3.340830         0.444649         1.105791
 C         2.057597        -0.323526         1.253140
 H        -0.604979        -0.305943         0.571122
 H        -0.492241        -0.286326        -1.104508
 H        -0.020538        -1.913940        -0.390565
 H         1.643076         2.007087        -1.188087
 H         1.797417         2.088621         0.528755
 H         4.128917         1.978814        -1.624684
 H         5.105912         0.585672        -1.439037
 H         3.210201        -1.492006        -0.838932
 H         2.472116        -1.431790         1.278000
 H         1.458652        -0.061647         2.169714
