19
Iteration:  1875
 C        -0.070422        -0.860515        -0.317992
 C         1.313443        -0.017240        -0.162673
 C         1.747867         1.245022        -0.917178
 C         3.159723         0.843641        -0.377273
 C         4.300815         0.444695        -1.360779
 O         3.384044        -0.671849        -1.781081
 C         2.661468        -0.594435        -0.450305
 O         3.142155         1.154828         1.065139
 C         1.780340         0.500987         1.258167
 H        -0.598890        -0.841627         0.645867
 H        -0.757263        -0.392600        -1.131206
 H         0.171843        -1.973454        -0.529479
 H         1.694113         1.259108        -1.990565
 H         1.338347         2.106973        -0.512970
 H         4.454719         1.224162        -2.187500
 H         5.296158         0.275737        -0.875206
 H         2.976341        -1.521629         0.037266
 H         2.041233        -0.328855         1.972929
 H         1.001931         1.141907         1.793903
