19
Iteration:  2854
 C        -0.054585        -0.726305        -0.172760
 C         1.264231        -0.030550        -0.208595
 C         1.683221         1.252715        -0.972989
 C         3.155048         0.875550        -0.391198
 C         4.283039         0.487656        -1.393051
 O         3.555741        -0.652938        -1.769730
 C         2.684579        -0.611008        -0.540644
 O         3.037956         1.116628         1.038487
 C         1.813530         0.361616         1.319265
 H        -0.802252        -0.167224         0.528275
 H        -0.575767        -0.962966        -1.119790
 H         0.004838        -1.720668         0.289784
 H         1.657497         1.080540        -2.046008
 H         1.141955         2.077407        -0.633056
 H         4.445902         1.381982        -2.149928
 H         5.257747         0.215341        -0.943464
 H         3.027520        -1.404570         0.140240
 H         2.113148        -0.581313         1.813002
 H         1.041174         0.771126         1.967411
