19
Iteration:  4902charge 0 multiplicity 1
 C        -0.059897        -0.695917        -0.224181
 C         1.351770        -0.118693        -0.154019
 C         1.660866         1.288999        -0.972577
 C         3.132320         0.830781        -0.374291
 C         4.249053         0.529956        -1.250292
 O         3.410641        -0.679153        -1.742110
 C         2.692260        -0.644662        -0.504440
 O         3.100422         1.170229         0.960054
 C         1.897329         0.374734         1.241448
 H        -0.965829        -0.067946        -0.135836
 H        -0.048381        -1.070029        -1.261298
 H        -0.262414        -1.673878         0.216908
 H         1.365822         1.056805        -2.039488
 H         1.137661         2.130508        -0.459480
 H         4.548728         1.144514        -2.071866
 H         5.117220         0.178713        -0.680053
 H         3.090628        -1.459034         0.100620
 H         2.280366        -0.501445         1.799106
 H         1.231919         1.046696         1.735225
