19
Iteration:   351charge 0 multiplicity 1
 C         0.036959        -0.675581        -0.262214
 C         1.373457        -0.037477        -0.103282
 C         1.715532         1.400734        -0.541242
 C         3.156517         0.812261        -0.210275
 C         4.114731         0.728152        -1.549091
 O         3.126109        -0.177883        -2.134200
 C         2.705755        -0.541469        -0.765965
 O         3.181937         0.677640         1.245200
 C         2.034518        -0.101824         1.343058
 H        -0.303852        -0.600229        -1.342058
 H         0.234085        -1.731085         0.032675
 H        -0.807409        -0.338602         0.319587
 H         1.320847         1.547670        -1.525736
 H         1.461336         2.199828         0.029258
 H         4.361295         1.610174        -2.211017
 H         5.103715         0.139672        -1.247026
 H         3.137434        -1.516536        -0.492583
 H         2.306023        -1.142977         1.433390
 H         1.357558         0.245672         2.125355
