19
Iteration:  3188charge 0 multiplicity 1
 C        -0.123845        -0.697022        -0.180067
 C         1.247521        -0.024585        -0.132027
 C         1.667660         1.187854        -0.962449
 C         3.144811         0.817606        -0.383832
 C         4.264492         0.549408        -1.272042
 O         3.510940        -0.658132        -1.763521
 C         2.767970        -0.650256        -0.589522
 O         3.074434         1.131504         0.931452
 C         1.855827         0.388639         1.259253
 H        -1.014661        -0.014263        -0.060729
 H        -0.204583        -1.316490        -1.118935
 H        -0.078975        -1.280499         0.801935
 H         1.500557         1.005311        -2.031858
 H         1.271811         2.032252        -0.500713
 H         4.522704         1.110678        -2.129425
 H         5.145614         0.117942        -0.579661
 H         3.116337        -1.323221         0.209911
 H         1.945817        -0.473033         1.910902
 H         1.294411         1.130460         1.762409
