19
Iteration:  2329
 C         0.039381        -0.773759        -0.376387
 C         1.313669        -0.038936        -0.108367
 C         1.741872         1.184239        -0.872223
 C         3.110565         0.751284        -0.322988
 C         4.211676         0.512231        -1.436864
 O         3.335631        -0.660991        -1.804248
 C         2.741622        -0.654305        -0.442736
 O         3.107666         1.222108         1.048232
 C         1.791998         0.474653         1.302916
 H        -0.873071        -0.411443         0.184525
 H        -0.366717        -0.692538        -1.374594
 H         0.200287        -1.782700        -0.168029
 H         1.766861         1.028115        -1.963460
 H         1.451002         2.170973        -0.397369
 H         4.546763         1.202463        -2.192299
 H         5.073923         0.084147        -0.952218
 H         3.163561        -1.436612         0.151749
 H         2.077914        -0.402661         1.879648
 H         1.208189         1.221671         1.840552
