19
Iteration:   966charge 0 multiplicity 1
 C         0.027826        -0.782565        -0.230900
 C         1.283391         0.030743        -0.161840
 C         1.649348         1.329306        -0.830393
 C         3.210316         0.781641        -0.257966
 C         4.236699         0.507397        -1.399481
 O         3.355989        -0.501968        -1.929022
 C         2.669411        -0.608024        -0.613284
 O         3.188817         0.968871         1.127431
 C         1.778154         0.304092         1.283201
 H        -0.296730        -1.068306         0.822102
 H        -0.871159        -0.279635        -0.849851
 H         0.306181        -1.702699        -0.756074
 H         1.606328         1.348584        -1.906861
 H         1.268508         2.273099        -0.485334
 H         4.444097         1.314583        -2.203966
 H         5.317855         0.298797        -1.056358
 H         3.021908        -1.478936        -0.057761
 H         1.915736        -0.553391         1.964521
 H         1.064297         1.047617         1.713574
