19
Iteration:  2205charge 0 multiplicity 1
 C        -0.020717        -0.676597        -0.288711
 C         1.356998        -0.138516        -0.180822
 C         1.748061         1.166981        -0.893799
 C         3.124536         0.789585        -0.356592
 C         4.166304         0.500711        -1.317202
 O         3.366772        -0.588557        -1.899108
 C         2.774910        -0.693629        -0.442062
 O         3.036356         1.224428         1.000927
 C         1.855919         0.390394         1.382070
 H        -0.750093         0.062262        -0.428768
 H        -0.036881        -1.373597        -1.104261
 H        -0.416491        -1.211674         0.527497
 H         1.779127         1.017316        -2.008126
 H         1.387617         2.260689        -0.639344
 H         4.667772         1.163119        -2.044798
 H         4.953087         0.003252        -0.928274
 H         3.298373        -1.526658         0.027952
 H         2.202338        -0.268903         2.131682
 H         1.143355         1.056960         1.830595
