19
Iteration:   863charge 0 multiplicity 1
 C        -0.047251        -0.715981        -0.193626
 C         1.347776        -0.043053        -0.140770
 C         1.740765         1.310526        -0.784232
 C         3.138691         0.757235        -0.332046
 C         4.291777         0.676980        -1.439263
 O         3.411181        -0.475150        -1.972918
 C         2.660163        -0.660797        -0.652454
 O         3.098431         0.862749         1.150028
 C         1.821242         0.330879         1.328000
 H        -0.828625        -0.361939        -0.924138
 H         0.054247        -1.818522        -0.492916
 H        -0.455729        -0.807411         0.920540
 H         1.410889         1.357438        -1.853205
 H         1.330318         2.201139        -0.180235
 H         4.276755         1.528488        -2.101913
 H         5.350473         0.278790        -1.297146
 H         3.012393        -1.573976        -0.184255
 H         1.920267        -0.525194         2.023736
 H         1.096701         1.069132         1.656015
