19
Iteration:  3269
 C         0.018340        -0.809009        -0.308886
 C         1.257782         0.032388        -0.124011
 C         1.711295         1.278661        -0.884785
 C         3.127695         0.797738        -0.389473
 C         4.167743         0.511712        -1.437846
 O         3.518573        -0.750453        -1.802273
 C         2.692087        -0.639782        -0.447064
 O         3.131317         1.042331         1.103750
 C         1.789576         0.608450         1.317601
 H        -0.915638        -0.569681         0.194843
 H        -0.411194        -0.892463        -1.332866
 H         0.146773        -1.843499        -0.006014
 H         1.778659         0.972583        -1.930542
 H         1.356192         2.329246        -1.032017
 H         4.223631         1.296702        -2.318584
 H         5.269836         0.299330        -1.229039
 H         2.883848        -1.456659         0.303128
 H         1.806812        -0.183124         2.113256
 H         1.050006         1.432939         1.546017
