19
Iteration:  3254
 C        -0.005636        -0.799049        -0.286621
 C         1.337943        -0.035263        -0.134308
 C         1.795440         1.200381        -0.969031
 C         3.165225         0.840205        -0.293840
 C         4.189346         0.527185        -1.452072
 O         3.380768        -0.722761        -1.746908
 C         2.711023        -0.616581        -0.508542
 O         3.148919         1.071972         1.069150
 C         1.675747         0.574666         1.300277
 H        -0.687748        -0.399218         0.481119
 H        -0.219182        -0.799149        -1.376091
 H         0.242431        -1.936794        -0.165231
 H         1.693173         1.197515        -2.036943
 H         1.364116         2.019822        -0.463814
 H         4.205013         1.099066        -2.319929
 H         5.212821         0.272679        -1.021662
 H         3.214232        -1.361471         0.093406
 H         1.648694        -0.049139         2.166956
 H         1.177315         1.487922         1.451005
