19
Iteration:   580charge 0 multiplicity 1
 C        -0.051881        -0.708074        -0.214040
 C         1.374303        -0.180929        -0.094742
 C         1.669951         1.247732        -0.629297
 C         3.152791         0.814141        -0.300977
 C         4.248366         0.639228        -1.320244
 O         3.195558        -0.164742        -2.049056
 C         2.672889        -0.626610        -0.802013
 O         3.217717         0.891260         1.093169
 C         1.950502         0.072223         1.291717
 H        -0.283643        -0.948272        -1.277273
 H        -0.148966        -1.569601         0.457578
 H        -0.670999         0.065552         0.137748
 H         1.436478         1.355720        -1.701263
 H         1.218626         2.064505        -0.002351
 H         4.578209         1.455983        -1.835432
 H         5.078351        -0.011766        -1.105518
 H         3.226282        -1.592548        -0.656191
 H         2.256776        -0.750741         2.003434
 H         1.246034         0.642878         1.931460
