19
Iteration:  3295charge 0 multiplicity 1
 C        -0.036325        -0.693653        -0.253169
 C         1.293267        -0.030373        -0.112777
 C         1.765537         1.164118        -0.934807
 C         3.139986         0.796879        -0.405773
 C         4.230120         0.516532        -1.336695
 O         3.459528        -0.691753        -1.758153
 C         2.734721        -0.654192        -0.504181
 O         3.094989         1.184454         0.956376
 C         1.756537         0.428129         1.331211
 H        -0.957854        -0.145264         0.033640
 H        -0.198674        -1.138882        -1.228426
 H        -0.125854        -1.626173         0.311331
 H         1.458079         1.230017        -2.056625
 H         1.511445         2.189778        -0.579989
 H         4.341351         1.290876        -2.132474
 H         5.182388         0.224265        -1.004765
 H         2.938184        -1.526507         0.119628
 H         2.124830        -0.403363         1.981525
 H         1.007025         1.114299         1.808957
