19
Iteration:  1153
 C        -0.004339        -0.727123        -0.254537
 C         1.315498        -0.085219        -0.171200
 C         1.685496         1.325502        -0.866278
 C         3.147906         0.790290        -0.362766
 C         4.294410         0.532410        -1.352175
 O         3.422515        -0.608639        -1.811158
 C         2.644881        -0.603748        -0.621627
 O         3.066741         1.085510         1.017486
 C         1.890762         0.294972         1.343028
 H        -0.073151        -1.662191        -0.872926
 H        -0.500677        -1.109382         0.764273
 H        -0.845866        -0.010870        -0.407579
 H         1.249119         1.438090        -1.862583
 H         1.422054         2.205409        -0.261880
 H         4.275431         1.225005        -2.150339
 H         5.369334         0.466289        -1.056717
 H         3.071598        -1.445288        -0.051341
 H         2.081760        -0.597939         1.920725
 H         1.185592         0.955469         1.929054
