19
Iteration:  4546charge 0 multiplicity 1
 C        -0.049751        -0.686381        -0.233379
 C         1.226086        -0.070202        -0.075107
 C         1.674232         1.122609        -0.931352
 C         3.096472         0.738168        -0.379379
 C         4.379906         0.497010        -1.210307
 O         3.438983        -0.639407        -1.959417
 C         2.747232        -0.640100        -0.567286
 O         3.036880         1.227291         0.961031
 C         1.854289         0.442987         1.396628
 H        -0.875680        -0.046419         0.076952
 H        -0.200318        -0.679739        -1.305023
 H        -0.075641        -1.659230         0.369566
 H         1.390554         0.903616        -1.986878
 H         1.383058         2.189585        -0.792555
 H         4.734632         1.290233        -1.997854
 H         5.207569         0.142048        -0.585986
 H         3.238558        -1.374557         0.026976
 H         2.170846        -0.455529         2.019283
 H         1.024115         0.858000         1.975184
