19
Iteration:  3637charge 0 multiplicity 1
 C        -0.078863        -0.724045        -0.233839
 C         1.348499        -0.142339        -0.054264
 C         1.681556         1.077142        -0.973159
 C         3.156597         0.791845        -0.372951
 C         4.281940         0.484068        -1.256361
 O         3.462518        -0.498270        -1.896531
 C         2.769356        -0.723087        -0.535688
 O         3.071350         1.178508         0.982849
 C         1.734592         0.520411         1.321333
 H        -0.669608        -0.028044         0.345398
 H        -0.500057        -0.495138        -1.209332
 H        -0.396096        -1.653369         0.176307
 H         1.699430         0.824611        -2.116333
 H         1.285586         2.037909        -0.613569
 H         4.628153         1.159450        -2.024622
 H         5.080960        -0.019767        -0.633782
 H         3.201825        -1.591775        -0.059612
 H         2.100498        -0.269400         2.028780
 H         1.060808         1.168647         1.810074
