19
Iteration:  1938charge 0 multiplicity 1
 C        -0.111141        -0.702365        -0.231260
 C         1.287861        -0.096046        -0.182320
 C         1.720551         1.189301        -0.915946
 C         3.117456         0.823076        -0.342874
 C         4.305791         0.503160        -1.320971
 O         3.501381        -0.614395        -1.798506
 C         2.771772        -0.681666        -0.537511
 O         3.107463         1.129696         1.006643
 C         1.801573         0.455151         1.289631
 H        -0.714047        -0.260277         0.520394
 H        -0.783134        -0.558308        -1.069726
 H        -0.039866        -1.770155         0.014848
 H         1.577378         1.104058        -2.036605
 H         1.065215         2.127840        -0.568449
 H         4.111758         1.224814        -2.213561
 H         5.272563         0.267053        -1.032542
 H         2.907803        -1.537992         0.148285
 H         1.873324        -0.449272         1.914659
 H         1.028167         1.141415         1.716749
