19
Iteration:  4033charge 0 multiplicity 1
 C         0.018564        -0.776684        -0.248576
 C         1.303855        -0.013310        -0.081054
 C         1.887328         1.131851        -0.966963
 C         3.276589         0.795978        -0.304257
 C         4.229344         0.546182        -1.389898
 O         3.313034        -0.575358        -1.920787
 C         2.741448        -0.673854        -0.472694
 O         3.030079         1.094459         1.106347
 C         1.699144         0.516351         1.275990
 H        -0.922296        -0.203157        -0.125632
 H        -0.209349        -1.264341        -1.207678
 H        -0.138813        -1.592062         0.560014
 H         1.772311         0.917657        -1.974756
 H         1.576145         2.193909        -0.752189
 H         4.105993         1.204482        -2.256152
 H         5.246876         0.235752        -0.923567
 H         3.267058        -1.488285         0.075874
 H         1.818953        -0.347118         2.073540
 H         0.873438         1.144197         1.641871
