19
Iteration:   829charge 0 multiplicity 1
 C        -0.046523        -0.765545        -0.253113
 C         1.342513        -0.010715        -0.155007
 C         1.746454         1.350403        -0.809218
 C         3.121244         0.872885        -0.335224
 C         4.214017         0.615000        -1.287325
 O         3.246555        -0.506324        -1.998852
 C         2.689137        -0.637277        -0.649957
 O         3.177474         0.976530         1.143985
 C         1.938672         0.174707         1.275482
 H        -0.316386        -1.000808        -1.330253
 H         0.065955        -1.682408         0.349552
 H        -1.004280        -0.070425         0.086233
 H         1.441116         1.214409        -1.871091
 H         1.284737         2.258717        -0.286028
 H         4.610141         1.525150        -1.831553
 H         5.010993         0.022862        -0.829782
 H         3.230581        -1.372774        -0.011909
 H         2.291140        -0.764920         1.735241
 H         1.288369         0.578163         2.063311
