19
Iteration:  2577charge 0 multiplicity 1
 C        -0.094221        -0.759590        -0.144605
 C         1.285909        -0.056251        -0.143894
 C         1.765806         1.233243        -0.985008
 C         3.188367         0.772198        -0.331166
 C         4.237502         0.614535        -1.379369
 O         3.471627        -0.628797        -1.833943
 C         2.795977        -0.665396        -0.442229
 O         3.081978         1.002301         1.016287
 C         1.708896         0.491581         1.221839
 H        -0.828388         0.015321        -0.248367
 H        -0.105918        -1.408840        -1.060463
 H        -0.598674        -1.271139         0.761022
 H         1.774307         1.290994        -2.036395
 H         1.357354         2.129197        -0.614245
 H         4.333634         1.415494        -2.174182
 H         5.200887         0.165156        -1.130102
 H         3.272492        -1.432467         0.191802
 H         1.825966        -0.354245         2.065484
 H         1.011382         1.325726         1.610182
