19
Iteration:   736
 C        -0.103593        -0.769978        -0.185152
 C         1.302764        -0.047815        -0.120874
 C         1.773301         1.397672        -0.695207
 C         3.123631         0.799726        -0.365079
 C         4.208359         0.696717        -1.389372
 O         3.408443        -0.487408        -2.066361
 C         2.702945        -0.586851        -0.732378
 O         3.126046         0.867467         1.122887
 C         1.870215         0.202308         1.388822
 H        -0.279557        -1.542759         0.584951
 H        -0.980434        -0.091670        -0.123265
 H        -0.285173        -1.309153        -1.046376
 H         1.674362         1.422530        -1.766384
 H         1.529133         2.291988        -0.192944
 H         4.272875         1.538642        -2.078987
 H         5.167158         0.279179        -1.091975
 H         3.290658        -1.355468        -0.176125
 H         2.084919        -0.862291         1.800836
 H         1.199029         0.667794         2.198668
