19
Iteration:  3636
 C        -0.070334        -0.722476        -0.231126
 C         1.339804        -0.145128        -0.067436
 C         1.688566         1.070276        -0.973832
 C         3.150499         0.798128        -0.367003
 C         4.292817         0.483551        -1.259079
 O         3.458280        -0.493836        -1.893386
 C         2.764787        -0.716498        -0.518854
 O         3.074039         1.175310         0.980445
 C         1.739103         0.515184         1.312378
 H        -0.663766         0.015556         0.401494
 H        -0.507286        -0.494739        -1.205654
 H        -0.380369        -1.686559         0.166670
 H         1.673634         0.833268        -2.082390
 H         1.279117         2.022884        -0.617198
 H         4.638182         1.166168        -2.059833
 H         5.049228         0.000509        -0.646376
 H         3.179194        -1.635140        -0.074069
 H         2.047080        -0.274756         2.036235
 H         1.063276         1.177734         1.772933
