19
Iteration:  2103
 C        -0.127705        -0.731959        -0.200819
 C         1.270036        -0.059740        -0.089510
 C         1.825622         1.133859        -0.977996
 C         3.171222         0.765955        -0.364538
 C         4.302784         0.587667        -1.293231
 O         3.417277        -0.637976        -1.906308
 C         2.754863        -0.633412        -0.521609
 O         3.009152         1.231113         1.049379
 C         1.832973         0.363008         1.302363
 H        -0.805901        -0.314026         0.513638
 H        -0.691483        -0.482878        -1.133135
 H        -0.071529        -1.856135        -0.029961
 H         1.868888         0.835883        -2.043097
 H         1.333374         2.209534        -0.815455
 H         4.584932         1.154697        -2.207859
 H         5.025963         0.100292        -0.699716
 H         3.218849        -1.543244         0.009900
 H         1.970984        -0.392078         2.033340
 H         1.140871         1.118924         1.656327
