19
Iteration:  2569
 C        -0.088337        -0.759708        -0.148697
 C         1.237992        -0.017288        -0.185483
 C         1.721254         1.226781        -0.974821
 C         3.118488         0.760131        -0.397086
 C         4.321455         0.585750        -1.345505
 O         3.502708        -0.611133        -1.804352
 C         2.748282        -0.681432        -0.498290
 O         3.099764         1.031899         1.072955
 C         1.763281         0.493806         1.205877
 H        -0.856999         0.069953        -0.146629
 H        -0.233897        -1.474006        -0.930495
 H        -0.104839        -1.284053         0.806168
 H         1.625975         1.182888        -2.021650
 H         1.467363         2.145380        -0.475471
 H         4.199340         1.249586        -2.253672
 H         5.258369         0.183891        -1.118775
 H         3.159131        -1.399725         0.235435
 H         1.790609        -0.361784         1.917594
 H         0.946654         1.078351         1.646153
