19
Iteration:  2192
 C         0.033592        -0.764034        -0.303250
 C         1.389581        -0.044081        -0.113961
 C         1.745438         1.226200        -0.960007
 C         3.117277         0.813752        -0.266426
 C         4.207002         0.427059        -1.327309
 O         3.316980        -0.644872        -1.874716
 C         2.705227        -0.696303        -0.547091
 O         3.070653         1.272831         1.057212
 C         1.865774         0.400724         1.326281
 H        -0.593464         0.037981        -0.434228
 H        -0.046787        -1.243877        -1.292348
 H        -0.181954        -1.443802         0.534780
 H         1.747232         1.161323        -2.039653
 H         1.231243         2.142518        -0.524177
 H         4.287296         1.219641        -2.085088
 H         5.037422         0.215265        -0.756111
 H         3.090976        -1.474993         0.189946
 H         2.134642        -0.490602         1.784764
 H         1.077876         0.894304         1.833467
