19
Iteration:  3811
 C        -0.042729        -0.749712        -0.212334
 C         1.277888        -0.073482        -0.251319
 C         1.684551         1.157126        -0.929026
 C         3.132696         0.792343        -0.355444
 C         4.222213         0.660360        -1.368297
 O         3.520658        -0.716144        -1.754716
 C         2.667550        -0.677585        -0.470857
 O         3.159792         1.064337         1.073926
 C         1.787182         0.527387         1.221769
 H        -0.708138        -0.092693         0.443286
 H        -0.644317        -0.835962        -1.170204
 H        -0.172907        -1.742288         0.236960
 H         1.742213         1.234772        -2.059738
 H         1.329726         2.075719        -0.685705
 H         4.245590         1.453300        -2.161101
 H         5.259299         0.577561        -1.137264
 H         3.098336        -1.452629         0.225473
 H         1.839488        -0.340922         1.906699
 H         1.133603         1.327203         1.513207
