19
Iteration:  1572
 C        -0.078227        -0.757704        -0.273384
 C         1.333553        -0.117803        -0.222485
 C         1.779138         1.226571        -0.861478
 C         3.142713         0.814312        -0.310029
 C         4.113948         0.593397        -1.488122
 O         3.417242        -0.616035        -1.851808
 C         2.740822        -0.585343        -0.492711
 O         3.186489         1.008914         1.161462
 C         1.779631         0.406931         1.270028
 H        -0.037828        -1.685661        -0.818701
 H        -0.528533        -1.019813         0.681602
 H        -0.702139        -0.076287        -0.751536
 H         1.835328         1.345677        -2.000414
 H         1.418537         2.178831        -0.293411
 H         4.320406         1.300143        -2.353861
 H         5.002147         0.462180        -0.972766
 H         3.063256        -1.404248         0.114614
 H         1.850242        -0.174627         2.247429
 H         1.139410         1.236769         1.561329
