19
Iteration:  4744
 C        -0.122340        -0.745374        -0.173816
 C         1.264912        -0.062260        -0.082356
 C         1.768757         1.165455        -0.971674
 C         3.176232         0.756138        -0.365729
 C         4.360428         0.568307        -1.355851
 O         3.430793        -0.649273        -1.879242
 C         2.763762        -0.646223        -0.526101
 O         3.057721         1.124515         1.051003
 C         1.746175         0.474747         1.283201
 H        -0.804827         0.142770        -0.016314
 H        -0.241194        -1.246679        -1.161981
 H        -0.367705        -1.519531         0.574407
 H         1.726198         0.940983        -1.959594
 H         1.248512         2.121478        -0.829718
 H         4.418868         1.395263        -2.017156
 H         5.262643         0.106007        -0.997701
 H         3.206642        -1.375323         0.138941
 H         1.980616        -0.202449         2.167204
 H         1.016098         1.322082         1.490380
