19
Iteration:  1147charge 0 multiplicity 1
 C        -0.014602        -0.743605        -0.237442
 C         1.330075        -0.094695        -0.083511
 C         1.728820         1.321914        -0.868830
 C         3.137356         0.792292        -0.375533
 C         4.254917         0.573463        -1.336901
 O         3.402450        -0.574927        -1.820391
 C         2.670869        -0.639979        -0.623110
 O         3.106063         1.051479         1.010431
 C         1.817643         0.309012         1.288112
 H        -0.056949        -1.638006        -0.842274
 H        -0.279225        -1.054433         0.738322
 H        -0.740895        -0.006366        -0.653357
 H         1.324611         1.347165        -1.895072
 H         1.558954         2.267276        -0.317413
 H         4.281060         1.325390        -2.235808
 H         5.271022         0.314869        -0.986775
 H         2.929987        -1.436771         0.130731
 H         2.123564        -0.539195         1.976011
 H         1.107689         0.993151         1.718831
