19
Iteration:  4588
 C        -0.039536        -0.722653        -0.129568
 C         1.383979        -0.058963        -0.230141
 C         1.764184         1.211279        -0.985760
 C         3.196654         0.749256        -0.297128
 C         4.263626         0.601335        -1.333967
 O         3.392708        -0.683104        -1.847481
 C         2.754790        -0.642034        -0.507764
 O         3.037464         1.089734         1.058306
 C         1.704453         0.447651         1.195905
 H        -0.754759         0.104729        -0.055812
 H        -0.305640        -1.378298        -0.975233
 H        -0.026642        -1.228820         0.914045
 H         1.835382         1.172286        -2.088996
 H         1.344120         2.057779        -0.613468
 H         4.279957         1.493014        -2.051660
 H         5.187906         0.163656        -1.191517
 H         3.200640        -1.289025         0.210759
 H         1.642781        -0.423580         1.978414
 H         1.131387         1.207288         1.786947
