19
Iteration:  1638charge 0 multiplicity 1
 C        -0.083835        -0.723099        -0.164068
 C         1.309384        -0.077644        -0.251028
 C         1.700644         1.199062        -0.907809
 C         3.182895         0.792188        -0.301560
 C         4.296734         0.493665        -1.339583
 O         3.374903        -0.541609        -1.832015
 C         2.744517        -0.563036        -0.554654
 O         3.080831         1.143655         1.010522
 C         1.832546         0.314328         1.275459
 H        -0.231273        -1.470889        -0.934493
 H        -0.298978        -1.323899         0.692380
 H        -0.876208        -0.069754        -0.165616
 H         1.641712         1.213205        -2.042151
 H         1.388474         2.174005        -0.373255
 H         4.769032         1.143841        -2.111924
 H         5.043783        -0.083515        -0.898263
 H         3.208005        -1.312123         0.075178
 H         1.958855        -0.628378         1.906399
 H         1.065346         0.926881         1.739843
