19
Iteration:  4399
 C        -0.093341        -0.701566        -0.141678
 C         1.327855        -0.061770        -0.251710
 C         1.744427         1.201301        -0.965842
 C         3.177680         0.745207        -0.342009
 C         4.229150         0.606596        -1.399971
 O         3.538701        -0.664655        -1.771281
 C         2.719096        -0.619253        -0.505403
 O         3.054138         1.130856         1.046220
 C         1.755931         0.356514         1.249666
 H        -0.895981         0.085783        -0.086333
 H        -0.323322        -1.480095        -0.910321
 H        -0.261502        -1.295828         0.733531
 H         1.722818         1.149224        -1.986801
 H         1.507651         2.163663        -0.565734
 H         4.126101         1.316029        -2.212526
 H         5.302263         0.491980        -1.076879
 H         3.036711        -1.400818         0.177794
 H         1.815879        -0.436519         2.039427
 H         0.916611         1.041151         1.600169
