19
Iteration:  4769charge 0 multiplicity 1
 C         0.074137        -0.689256        -0.335248
 C         1.338054        -0.067661        -0.177675
 C         1.810503         1.136653        -0.886505
 C         3.133088         0.827264        -0.332619
 C         4.204405         0.458016        -1.340058
 O         3.303619        -0.600347        -1.780671
 C         2.728900        -0.732990        -0.445949
 O         3.006383         1.285316         0.972458
 C         1.853904         0.377837         1.306165
 H        -0.605135         0.219115        -0.153172
 H        -0.114894        -1.285177        -1.250257
 H        -0.155310        -1.310371         0.509551
 H         1.814443         1.092061        -2.100136
 H         1.203884         2.025968        -0.585655
 H         4.323914         1.192294        -2.093651
 H         5.128883         0.014731        -0.814942
 H         2.991711        -1.791190        -0.069103
 H         2.289671        -0.477178         1.996324
 H         1.197004         1.069525         1.864734
