19
Iteration:  4356
 C         0.041801        -0.729964        -0.318358
 C         1.308017        -0.114379        -0.007765
 C         1.760538         1.114386        -0.933150
 C         3.153490         0.801957        -0.300334
 C         4.292371         0.529225        -1.409148
 O         3.405845        -0.621366        -1.935694
 C         2.719288        -0.657590        -0.438494
 O         3.019215         1.141971         1.033206
 C         1.729237         0.524619         1.365770
 H        -0.781199        -0.139693         0.172788
 H        -0.158185        -0.785763        -1.425522
 H        -0.013476        -1.728375         0.083178
 H         1.659624         0.855994        -1.914467
 H         1.261368         2.047266        -0.823817
 H         4.482905         1.365823        -2.144815
 H         5.264640        -0.003620        -1.118014
 H         3.243297        -1.475450        -0.070705
 H         1.914158        -0.003278         2.320695
 H         1.022078         1.338468         1.690228
