19
Iteration:  2672charge 0 multiplicity 1
 C         0.002975        -0.792577        -0.173668
 C         1.282225        -0.032188        -0.172543
 C         1.766121         1.263133        -0.916034
 C         3.158754         0.775552        -0.368276
 C         4.265900         0.554017        -1.392161
 O         3.462150        -0.647651        -1.792735
 C         2.674019        -0.619894        -0.496933
 O         3.084765         1.056772         1.003756
 C         1.703034         0.468394         1.240253
 H        -0.647912        -0.492985         0.650511
 H        -0.400625        -0.755512        -1.195411
 H         0.185229        -1.831919         0.078897
 H         1.627451         1.321757        -2.052771
 H         1.375798         2.307765        -0.518964
 H         4.655608         1.274695        -2.091481
 H         5.188634         0.061987        -0.859541
 H         2.997752        -1.418254         0.202067
 H         1.715679        -0.274513         2.026861
 H         1.071174         1.282246         1.562231
