19
Iteration:    96charge 0 multiplicity 1
 C        -0.098874        -0.740640        -0.177414
 C         1.343288        -0.105495        -0.111161
 C         1.742304         1.382076        -0.434609
 C         3.279667         0.635663        -0.217229
 C         4.058238         0.963834        -1.484632
 O         3.140374         0.128269        -2.310613
 C         2.657444        -0.608053        -0.891449
 O         3.364090         0.530866         1.266149
 C         2.006810        -0.236843         1.376695
 H        -0.220230        -1.662842        -0.718141
 H        -0.609048        -0.997973         0.787401
 H        -0.730881         0.081085        -0.808469
 H         1.478176         1.836714        -1.365501
 H         1.419359         2.110494         0.305566
 H         4.085794         2.017454        -1.721972
 H         5.191401         0.722260        -1.642111
 H         2.785712        -1.765097        -0.806169
 H         2.124847        -1.299912         1.802549
 H         1.298728         0.347908         1.978375
