19
Iteration:  1783charge 0 multiplicity 1
 C        -0.012922        -0.681880        -0.162105
 C         1.350657        -0.062654        -0.132249
 C         1.681267         1.166611        -0.960633
 C         3.219028         0.784199        -0.327461
 C         4.246169         0.492247        -1.325405
 O         3.459400        -0.595256        -1.847144
 C         2.755447        -0.685220        -0.605254
 O         3.062432         1.054555         1.083507
 C         1.715255         0.493632         1.251135
 H        -0.860989         0.078522        -0.194623
 H        -0.006382        -1.309528        -0.988537
 H        -0.201401        -1.204246         0.754670
 H         1.635360         1.106266        -2.083415
 H         1.209869         2.205343        -0.561641
 H         4.291619         1.291112        -2.295521
 H         5.269556         0.373014        -1.058587
 H         3.024152        -1.596759        -0.076430
 H         1.657795        -0.208215         2.169213
 H         0.933439         1.248098         1.527779
