19
Iteration:  3379
 C        -0.041645        -0.801021        -0.271307
 C         1.259704         0.018980        -0.199208
 C         1.698310         1.313810        -0.873331
 C         3.137678         0.796823        -0.354886
 C         4.255399         0.539948        -1.432397
 O         3.471609        -0.743498        -1.706848
 C         2.739692        -0.680047        -0.524090
 O         3.156627         1.057659         0.997395
 C         1.739452         0.523989         1.310855
 H        -0.861077        -0.054728        -0.099548
 H        -0.112561        -1.189178        -1.322778
 H         0.077779        -1.513220         0.542513
 H         1.768400         1.198248        -1.992186
 H         1.096681         2.069370        -0.451484
 H         4.196367         1.192327        -2.395016
 H         5.294002         0.316626        -1.085767
 H         2.902697        -1.462136         0.288873
 H         1.820775        -0.078707         2.197077
 H         1.062736         1.359514         1.632953
