19
Iteration:  4064charge 0 multiplicity 1
 C        -0.030293        -0.699789        -0.243827
 C         1.398051        -0.112066        -0.200609
 C         1.743559         1.166125        -0.900015
 C         3.207291         0.797661        -0.304814
 C         4.210833         0.489745        -1.366292
 O         3.389155        -0.581164        -1.856957
 C         2.738505        -0.721487        -0.485219
 O         3.014323         1.160516         1.065383
 C         1.781492         0.462921         1.245979
 H        -0.693702         0.132085        -0.210191
 H        -0.219695        -1.297913        -1.154198
 H        -0.181620        -1.254462         0.673894
 H         1.674981         1.279519        -1.937224
 H         1.351140         1.996312        -0.273386
 H         4.313296         1.203115        -2.282508
 H         5.238230         0.365926        -0.993737
 H         3.193987        -1.538274         0.185964
 H         2.043110        -0.425430         1.919911
 H         0.985456         1.092566         1.622350
