19
Iteration:  3958charge 0 multiplicity 1
 C        -0.010614        -0.630443        -0.192568
 C         1.353704        -0.102290        -0.137499
 C         1.803267         1.071803        -0.991838
 C         3.196510         0.808495        -0.304231
 C         4.285316         0.550234        -1.377272
 O         3.415800        -0.619782        -1.853039
 C         2.699100        -0.658700        -0.494919
 O         2.938601         1.212036         1.061238
 C         1.797095         0.387236         1.292531
 H        -0.820338        -0.184462         0.451679
 H        -0.373128        -0.661610        -1.235799
 H        -0.056474        -1.792358        -0.041716
 H         1.788788         0.999452        -2.043363
 H         1.421983         2.119453        -0.811836
 H         4.353557         1.368307        -2.053044
 H         5.251785         0.052017        -1.115916
 H         2.993370        -1.508592         0.100287
 H         1.945119        -0.530044         1.848913
 H         1.086540         0.971437         1.871343
