19
Iteration:  3484charge 0 multiplicity 1
 C        -0.048218        -0.709289        -0.120506
 C         1.275595        -0.031956        -0.274328
 C         1.704339         1.252980        -0.993685
 C         3.138472         0.834789        -0.387911
 C         4.255463         0.548006        -1.389004
 O         3.526565        -0.662089        -1.756969
 C         2.721523        -0.644892        -0.448531
 O         3.154753         1.003612         1.043511
 C         1.627331         0.428400         1.225287
 H        -0.758376        -0.030936         0.276718
 H        -0.358167        -1.358553        -0.949450
 H         0.125187        -1.444507         0.697135
 H         1.734459         1.386975        -2.071358
 H         1.172050         2.245660        -0.729542
 H         4.464212         1.148382        -2.271409
 H         5.295345         0.283512        -0.955872
 H         3.040646        -1.372785         0.263448
 H         1.809214        -0.385779         2.020884
 H         1.238096         1.342257         1.625695
