19
Iteration:  1204charge 0 multiplicity 1
 C         0.009506        -0.651894        -0.244073
 C         1.351537        -0.125578        -0.140053
 C         1.699687         1.157613        -0.943359
 C         3.163713         0.706677        -0.295188
 C         4.262290         0.601450        -1.406492
 O         3.366585        -0.479070        -1.884633
 C         2.732118        -0.717923        -0.454485
 O         3.039071         1.048110         1.054258
 C         1.811707         0.431708         1.282797
 H        -0.462984        -0.678099        -1.215355
 H         0.096892        -1.597191         0.145832
 H        -0.667100        -0.189214         0.433112
 H         1.700296         1.118187        -2.067596
 H         1.166548         2.139591        -0.522638
 H         4.492284         1.414151        -2.100186
 H         5.280596         0.177514        -1.078127
 H         3.160912        -1.595095         0.084752
 H         2.006666        -0.395894         2.049310
 H         1.121448         1.097471         1.794860
