19
Iteration:  4579
 C        -0.038785        -0.684950        -0.131991
 C         1.299280        -0.130839        -0.287344
 C         1.780110         1.151847        -0.975902
 C         3.141813         0.783043        -0.347888
 C         4.320338         0.574565        -1.299389
 O         3.365936        -0.589230        -1.812548
 C         2.762955        -0.689076        -0.528440
 O         3.067087         1.139936         1.050656
 C         1.741742         0.424892         1.258324
 H        -0.740361         0.145767        -0.013224
 H        -0.415233        -1.383139        -0.891982
 H        -0.200214        -1.385877         0.742322
 H         1.704587         1.070928        -2.043795
 H         1.421400         2.119357        -0.559858
 H         4.451832         1.251779        -2.212531
 H         5.270107         0.236014        -0.879433
 H         3.105911        -1.507559         0.092272
 H         2.096259        -0.330069         2.001555
 H         1.042209         1.238383         1.533521
