19
Iteration:  2100
 C        -0.127899        -0.730911        -0.211567
 C         1.276605        -0.060979        -0.095920
 C         1.809129         1.151855        -0.963733
 C         3.157592         0.788619        -0.368131
 C         4.316250         0.573002        -1.304576
 O         3.428075        -0.641285        -1.903382
 C         2.738789        -0.651471        -0.536925
 O         2.999424         1.240883         1.055234
 C         1.834696         0.357119         1.302702
 H        -0.786687        -0.198282         0.557554
 H        -0.668720        -0.477262        -1.113303
 H         0.043136        -1.798196        -0.009696
 H         1.861024         0.819624        -1.994660
 H         1.345410         2.015680        -0.844140
 H         4.524344         1.089013        -2.147137
 H         5.100232         0.085553        -0.669624
 H         3.224802        -1.493499        -0.001908
 H         2.032504        -0.463220         2.031321
 H         1.175450         1.126884         1.727149
