19
Iteration:  4187
 C         0.020517        -0.780238        -0.310952
 C         1.285126        -0.055118        -0.218388
 C         1.727157         1.314298        -0.914164
 C         3.086733         0.812533        -0.349820
 C         4.243128         0.560913        -1.276703
 O         3.363093        -0.668610        -1.778889
 C         2.659028        -0.679104        -0.470385
 O         3.153410         1.078070         0.975558
 C         1.855537         0.473632         1.311071
 H        -0.928963        -0.369740         0.039153
 H         0.035718        -1.162602        -1.312727
 H         0.323514        -1.764037         0.191094
 H         1.498033         1.406876        -2.021062
 H         1.305553         2.190770        -0.427837
 H         4.410024         1.042242        -2.227414
 H         5.218471         0.280228        -0.706095
 H         3.096838        -1.433143         0.252578
 H         1.844824        -0.388677         2.089990
 H         1.159173         1.304776         1.556449
