19
Iteration:  1209charge 0 multiplicity 1
 C        -0.013474        -0.684004        -0.248477
 C         1.370664        -0.111924        -0.128091
 C         1.711248         1.160675        -0.933952
 C         3.170027         0.709110        -0.297663
 C         4.240222         0.588046        -1.411835
 O         3.372412        -0.467243        -1.912231
 C         2.731944        -0.764938        -0.457990
 O         3.072498         1.059455         1.119735
 C         1.771077         0.474314         1.248723
 H        -0.560301        -0.527664        -1.213179
 H         0.296283        -1.760328         0.130271
 H        -0.680983        -0.169889         0.510180
 H         1.661205         1.058748        -2.009821
 H         1.266233         2.054106        -0.525942
 H         4.401397         1.375712        -2.173877
 H         5.236077         0.190210        -1.003406
 H         3.296870        -1.631358        -0.102538
 H         1.901854        -0.315451         1.978235
 H         1.035945         1.216223         1.671576
