19
Iteration:   873charge 0 multiplicity 1
 C        -0.040765        -0.713978        -0.185719
 C         1.313240        -0.113992        -0.125660
 C         1.763921         1.278844        -0.749667
 C         3.185485         0.704138        -0.304968
 C         4.186204         0.691404        -1.390500
 O         3.383032        -0.490073        -2.034672
 C         2.763272        -0.676034        -0.682359
 O         3.157021         0.925242         1.153754
 C         1.722061         0.365039         1.300988
 H        -0.778646        -0.026510        -0.692368
 H         0.054510        -1.696853        -0.687664
 H        -0.471297        -0.872770         0.919066
 H         1.775848         1.466665        -1.850486
 H         1.564539         2.282181        -0.229339
 H         4.152917         1.449768        -2.187264
 H         5.237759         0.462289        -1.115587
 H         3.211319        -1.564351        -0.183441
 H         1.697568        -0.563697         1.945767
 H         0.951917         1.090447         1.657256
