19
Iteration:  3687charge 0 multiplicity 1
 C         0.024882        -0.751816        -0.229507
 C         1.302980        -0.035226        -0.265954
 C         1.781119         1.330591        -0.986529
 C         3.132116         0.826860        -0.310699
 C         4.157095         0.552293        -1.413244
 O         3.398440        -0.722614        -1.722714
 C         2.804858        -0.618474        -0.467615
 O         3.076098         1.118975         1.104193
 C         1.777802         0.331828         1.238711
 H        -0.956621        -0.163547        -0.328404
 H        -0.066680        -1.310353        -1.139841
 H        -0.104641        -1.302360         0.718674
 H         1.816084         1.215084        -1.990193
 H         1.311304         2.216649        -0.563503
 H         3.979738         1.240398        -2.330824
 H         5.203097         0.266750        -1.331605
 H         3.251817        -1.295778         0.333576
 H         1.939368        -0.518543         1.925516
 H         1.021025         1.095723         1.655892
