19
Iteration:  4193charge 0 multiplicity 1
 C         0.021940        -0.803431        -0.297589
 C         1.275454        -0.051035        -0.238641
 C         1.718361         1.327707        -0.884260
 C         3.099356         0.815014        -0.417563
 C         4.255252         0.539924        -1.296752
 O         3.389605        -0.696185        -1.702019
 C         2.652220        -0.651421        -0.514735
 O         3.164823         1.096311         0.974398
 C         1.835425         0.454600         1.311240
 H        -0.897096        -0.257015        -0.062696
 H         0.045154        -1.159841        -1.379060
 H         0.205186        -1.666107         0.306003
 H         1.382678         1.475796        -1.873377
 H         1.230868         2.207641        -0.352715
 H         4.447547         1.272821        -2.154083
 H         5.115087         0.253618        -0.789392
 H         2.993140        -1.462393         0.143964
 H         1.895085        -0.399714         1.904159
 H         1.172540         1.175420         1.787938
