19
Iteration:  2649charge 0 multiplicity 1
 C         0.050917        -0.795938        -0.311278
 C         1.316668        -0.015039        -0.165222
 C         1.681989         1.303866        -0.926462
 C         3.124078         0.847800        -0.368319
 C         4.212144         0.442441        -1.348301
 O         3.401527        -0.713929        -1.820692
 C         2.691923        -0.572824        -0.490738
 O         3.094393         1.137408         1.089056
 C         1.854422         0.455177         1.328380
 H        -0.864088        -0.399744         0.194617
 H        -0.040382        -0.936452        -1.403878
 H         0.107679        -1.761525         0.147107
 H         1.576169         1.248661        -2.086661
 H         1.068438         2.258040        -0.676050
 H         4.530241         1.000705        -2.243917
 H         5.224842         0.141010        -0.844440
 H         2.953554        -1.435430         0.129156
 H         1.930332        -0.519903         1.816616
 H         1.148746         1.067552         1.890336
