19
Iteration:  4516
 C        -0.015180        -0.792809        -0.251773
 C         1.328554        -0.074601        -0.219182
 C         1.751668         1.255861        -0.932215
 C         3.168804         0.830057        -0.293811
 C         4.162118         0.473737        -1.400740
 O         3.415700        -0.695977        -1.748372
 C         2.707181        -0.568871        -0.444211
 O         3.100919         1.156442         1.052008
 C         1.797163         0.428669         1.207991
 H        -0.617310        -0.132131         0.416176
 H        -0.271979        -0.681582        -1.331214
 H         0.029008        -1.851262        -0.043799
 H         1.855017         1.175717        -2.017596
 H         1.333659         2.326543        -0.474133
 H         4.061540         1.164914        -2.251589
 H         5.266358         0.319799        -1.072541
 H         3.156298        -1.394556         0.228538
 H         1.936602        -0.414971         1.834606
 H         0.937104         0.915099         1.694183
