19
Iteration:  1681charge 0 multiplicity 1
 C        -0.042032        -0.735093        -0.273564
 C         1.296450        -0.055580        -0.177818
 C         1.790040         1.155162        -0.913233
 C         3.175830         0.789679        -0.327602
 C         4.172241         0.602826        -1.407368
 O         3.448077        -0.628038        -1.859351
 C         2.667864        -0.680772        -0.515177
 O         3.154741         1.045336         1.120374
 C         1.759970         0.515344         1.325860
 H        -0.526312        -0.623044        -1.241713
 H         0.155973        -1.818573        -0.085532
 H        -0.546476        -0.376935         0.562123
 H         1.682957         1.045248        -2.048266
 H         1.209887         2.119410        -0.604839
 H         4.115321         1.480150        -2.075376
 H         5.230171         0.271640        -1.090032
 H         3.041269        -1.590407         0.017835
 H         1.789192        -0.239357         2.127700
 H         1.118669         1.373693         1.560489
