19
Iteration:  2264charge 0 multiplicity 1
 C         0.022376        -0.753020        -0.079992
 C         1.280458        -0.072077        -0.216111
 C         1.761149         1.283073        -0.950083
 C         3.147570         0.756651        -0.335141
 C         4.262587         0.614951        -1.395686
 O         3.464253        -0.633956        -1.761000
 C         2.698696        -0.669077        -0.522528
 O         3.048453         1.037823         0.993783
 C         1.749007         0.451724         1.236072
 H        -0.806278         0.034991         0.011709
 H        -0.285060        -1.031325        -1.088591
 H         0.047109        -1.600809         0.581248
 H         1.831563         1.178958        -2.035794
 H         1.554139         2.285242        -0.624385
 H         4.260678         1.246069        -2.244191
 H         5.213934         0.274626        -0.968686
 H         2.926143        -1.493555         0.138969
 H         1.800592        -0.460540         1.943293
 H         0.948970         1.175166         1.553982
