19
Iteration:   368
 C         0.037918        -0.645729        -0.277294
 C         1.393108        -0.149429        -0.105343
 C         1.814706         1.295793        -0.534106
 C         3.219136         0.750724        -0.256558
 C         4.116401         0.728267        -1.440239
 O         3.076151        -0.105905        -2.119077
 C         2.638755        -0.610782        -0.800327
 O         3.148500         0.902143         1.199810
 C         2.020637        -0.191004         1.317260
 H        -0.468228        -0.125968        -1.069169
 H        -0.158530        -1.686709        -0.552269
 H        -0.606490        -0.466543         0.676481
 H         1.717921         1.427347        -1.657221
 H         1.494824         2.230871         0.183319
 H         4.310020         1.623423        -1.993739
 H         4.994920         0.178758        -1.362974
 H         3.049190        -1.608765        -0.500169
 H         2.493580        -1.143290         1.758692
 H         1.437926         0.127658         2.209837
