19
Iteration:  1261charge 0 multiplicity 1
 C         0.104570        -0.783932        -0.234226
 C         1.312893         0.027848        -0.176084
 C         1.690825         1.257540        -0.917961
 C         3.152485         0.819654        -0.287397
 C         4.195322         0.496135        -1.359543
 O         3.368832        -0.613361        -1.820029
 C         2.664140        -0.570656        -0.561413
 O         3.140050         1.074533         1.055535
 C         1.739385         0.353048         1.255737
 H        -0.371643        -0.521380        -1.183332
 H         0.462068        -1.797787        -0.304337
 H        -0.513246        -0.617808         0.621644
 H         1.666971         1.284478        -2.054585
 H         1.380861         2.299475        -0.384886
 H         4.449593         1.172234        -2.127002
 H         5.078463        -0.050923        -0.799312
 H         2.982535        -1.459760         0.016168
 H         1.971703        -0.597904         1.808645
 H         1.186637         1.138594         1.838918
