19
Iteration:  4153charge 0 multiplicity 1
 C        -0.011981        -0.723270        -0.224036
 C         1.396563        -0.064177        -0.097361
 C         1.822125         1.101346        -0.980264
 C         3.226446         0.757645        -0.265944
 C         4.372340         0.505632        -1.462467
 O         3.284776        -0.522073        -1.901735
 C         2.761801        -0.692383        -0.500552
 O         2.995760         1.157214         1.130662
 C         1.632141         0.485690         1.311872
 H        -0.879170        -0.438522         0.345722
 H        -0.375098        -0.715192        -1.219067
 H         0.111937        -1.801765         0.077362
 H         1.882080         0.939237        -2.025965
 H         1.436878         2.062519        -0.580080
 H         4.455363         1.085109        -2.410396
 H         5.383601         0.105173        -1.179728
 H         3.175961        -1.618767         0.034674
 H         1.723024        -0.116193         2.276107
 H         0.954744         1.316784         1.477309
