19
Iteration:  4926
 C        -0.008904        -0.722099        -0.336213
 C         1.308015        -0.032078        -0.117277
 C         1.784397         1.179766        -0.886445
 C         3.171910         0.781240        -0.351747
 C         4.204667         0.579206        -1.474903
 O         3.449033        -0.721382        -1.810487
 C         2.723909        -0.600677        -0.500599
 O         3.076016         1.105973         1.068296
 C         1.705297         0.476759         1.398492
 H        -0.839410        -0.133464        -0.171488
 H        -0.187300        -1.350597        -1.205214
 H        -0.104705        -1.519121         0.436375
 H         1.661027         0.885194        -1.927986
 H         1.455161         2.267274        -0.535911
 H         4.220133         1.199628        -2.436047
 H         5.182181         0.326540        -1.169290
 H         3.311181        -1.313316         0.144153
 H         1.845925        -0.371350         2.015094
 H         1.139597         1.329515         1.782885
