19
Iteration:  4917charge 0 multiplicity 1
 C        -0.029724        -0.762366        -0.318581
 C         1.272492         0.007947        -0.088501
 C         1.705069         1.216871        -0.923226
 C         3.091621         0.821738        -0.397223
 C         4.202738         0.493200        -1.428461
 O         3.478131        -0.650930        -1.792162
 C         2.762906        -0.665626        -0.424820
 O         3.102665         1.100072         1.020870
 C         1.803946         0.435983         1.331092
 H        -0.813750        -0.047047        -0.205070
 H        -0.196044        -1.132931        -1.353843
 H        -0.189073        -1.490175         0.488419
 H         1.767903         1.192014        -1.986546
 H         1.413369         2.282972        -0.570364
 H         4.364774         1.247230        -2.310621
 H         5.197592         0.273962        -1.036656
 H         3.219881        -1.399618         0.323466
 H         1.909796        -0.404350         1.986058
 H         1.080608         1.136469         1.833603
