19
Iteration:  2334charge 0 multiplicity 1
 C         0.021597        -0.794783        -0.366828
 C         1.310568        -0.058930        -0.097526
 C         1.770752         1.249713        -0.879259
 C         3.179948         0.802456        -0.343672
 C         4.195210         0.533363        -1.448658
 O         3.366260        -0.686011        -1.793895
 C         2.697159        -0.680174        -0.458199
 O         3.088587         1.196456         1.062768
 C         1.796397         0.480975         1.314123
 H        -0.815326        -0.351855         0.153357
 H        -0.434797        -0.721250        -1.386024
 H         0.068827        -1.914494        -0.092437
 H         1.823711         1.082961        -1.949796
 H         1.303040         2.150885        -0.530008
 H         4.395032         1.246873        -2.303864
 H         5.083135         0.036438        -0.978653
 H         3.198395        -1.496911         0.141059
 H         2.045705        -0.389198         2.010302
 H         1.149220         1.222241         1.827969
