19
Iteration:  3298charge 0 multiplicity 1
 C        -0.055826        -0.687076        -0.254245
 C         1.318388        -0.038982        -0.124227
 C         1.751234         1.178897        -0.910893
 C         3.124871         0.795168        -0.382118
 C         4.245497         0.526856        -1.341207
 O         3.434267        -0.688155        -1.750389
 C         2.765413        -0.673172        -0.536330
 O         3.077680         1.205979         0.959983
 C         1.775978         0.422102         1.309217
 H        -0.901735        -0.037763         0.074231
 H        -0.192591        -1.233254        -1.212667
 H        -0.190744        -1.646462         0.364226
 H         1.552071         1.108845        -1.961759
 H         1.499871         2.194726        -0.644697
 H         4.362676         1.196363        -2.108869
 H         5.208457         0.112557        -0.938063
 H         2.976302        -1.512563         0.107476
 H         2.101058        -0.385260         1.941307
 H         1.044248         1.056540         1.732468
