19
Iteration:  2772
 C         0.047646        -0.801314        -0.314859
 C         1.332823         0.021981        -0.177501
 C         1.720706         1.322174        -0.905837
 C         3.142747         0.770078        -0.331697
 C         4.187567         0.488299        -1.439442
 O         3.379618        -0.658710        -1.746056
 C         2.745897        -0.610059        -0.469662
 O         3.038919         1.081548         1.024567
 C         1.826283         0.400157         1.343907
 H        -0.774519        -0.200772        -0.580706
 H         0.174245        -1.415786        -1.228010
 H        -0.177739        -1.434593         0.583258
 H         1.660469         1.427567        -1.977815
 H         1.449233         2.420340        -0.530028
 H         4.225732         1.153313        -2.272404
 H         5.214678         0.347857        -0.957384
 H         3.130010        -1.385851         0.226798
 H         2.019196        -0.447476         1.967262
 H         1.090207         1.092245         1.687553
