19
Iteration:  4972
 C         0.000254        -0.785234        -0.275262
 C         1.350569        -0.066237        -0.136996
 C         1.794536         1.157614        -0.942589
 C         3.179527         0.820046        -0.331669
 C         4.294008         0.554745        -1.317541
 O         3.247451        -0.626834        -1.832485
 C         2.762102        -0.653596        -0.487108
 O         3.102107         1.134745         1.016245
 C         1.736686         0.487301         1.305723
 H        -0.816252        -0.159995        -0.023089
 H        -0.177979        -1.192723        -1.284546
 H        -0.139818        -1.677722         0.337072
 H         1.854842         1.077592        -2.029735
 H         1.322540         2.113748        -0.510616
 H         4.508371         1.387410        -2.072357
 H         5.189144         0.030175        -1.031468
 H         3.111085        -1.547666         0.128822
 H         1.956527        -0.144838         2.125629
 H         0.939412         1.234174         1.476266
