19
Iteration:   945charge 0 multiplicity 1
 C        -0.036237        -0.842794        -0.317740
 C         1.283059        -0.027781        -0.168533
 C         1.683773         1.402120        -0.731901
 C         3.130458         0.814608        -0.351659
 C         4.248046         0.561272        -1.347415
 O         3.361272        -0.582358        -1.868438
 C         2.657732        -0.575205        -0.609532
 O         3.139949         1.035144         1.027401
 C         1.947452         0.274588         1.314602
 H        -0.622197        -0.690238         0.597216
 H        -0.561234        -0.298140        -1.123659
 H         0.009987        -1.863244        -0.572365
 H         1.396175         1.646984        -1.729341
 H         1.426101         2.206757        -0.091408
 H         4.687894         1.191835        -2.204343
 H         5.120140         0.030339        -0.855765
 H         3.004627        -1.409940         0.046737
 H         2.062455        -0.716064         1.757057
 H         1.240251         0.798579         2.004042
