19
Iteration:   405charge 0 multiplicity 1
 C        -0.069461        -0.660418        -0.183981
 C         1.285994        -0.123451        -0.062639
 C         1.666230         1.283098        -0.560499
 C         3.119292         0.762138        -0.241878
 C         4.105113         0.864197        -1.466045
 O         3.334049        -0.170740        -2.176400
 C         2.672673        -0.563841        -0.788619
 O         3.345337         0.610999         1.123400
 C         1.921882        -0.011547         1.385775
 H        -0.777391         0.235542        -0.310680
 H        -0.085460        -1.230684        -1.151314
 H        -0.364370        -1.278360         0.682861
 H         1.503455         1.279149        -1.645788
 H         1.270768         2.182514        -0.121612
 H         4.207877         1.762618        -2.088741
 H         5.121196         0.416975        -1.134642
 H         3.199530        -1.442175        -0.353978
 H         1.973466        -0.941617         1.876738
 H         1.419908         0.786589         1.933072
