19
Iteration:  4430charge 0 multiplicity 1
 C        -0.030269        -0.738460        -0.185383
 C         1.339107         0.011480        -0.148876
 C         1.701726         1.199833        -0.946735
 C         3.143594         0.794620        -0.372067
 C         4.341520         0.523623        -1.278275
 O         3.407171        -0.691691        -1.883632
 C         2.734984        -0.578638        -0.531069
 O         2.961707         1.252993         0.994314
 C         1.844696         0.288726         1.337814
 H        -0.930878        -0.086036        -0.407326
 H        -0.122907        -1.381884        -1.095666
 H        -0.231867        -1.287401         0.717889
 H         1.598132         1.036240        -1.984082
 H         1.436575         2.267197        -0.699255
 H         4.676365         1.126538        -2.029585
 H         5.201095         0.055630        -0.704361
 H         3.153711        -1.468692         0.031382
 H         2.160290        -0.653740         1.840265
 H         1.005020         0.825144         1.881596
