19
Iteration:  2229charge 0 multiplicity 1
 C        -0.115489        -0.709059        -0.144848
 C         1.324971        -0.060659        -0.139973
 C         1.625413         1.141368        -0.927444
 C         3.216797         0.740843        -0.324459
 C         4.305962         0.573672        -1.401766
 O         3.472100        -0.590610        -1.843465
 C         2.761598        -0.656835        -0.499395
 O         3.098400         1.099435         1.047242
 C         1.722504         0.415839         1.258577
 H        -0.758013         0.192481        -0.375295
 H        -0.049050        -1.297312        -1.026101
 H        -0.704170        -1.206711         0.565048
 H         1.765410         0.949521        -2.043168
 H         1.298584         2.233188        -0.747890
 H         4.432208         1.271355        -2.226319
 H         5.304097         0.351303        -1.172446
 H         3.204069        -1.487360        -0.003692
 H         1.972928        -0.272985         2.073283
 H         1.062686         1.199990         1.681703
