19
Iteration:  2005charge 0 multiplicity 1
 C         0.000349        -0.789800        -0.276003
 C         1.395609        -0.119015        -0.133747
 C         1.835304         1.206771        -0.916694
 C         3.195203         0.818487        -0.290696
 C         4.194691         0.464891        -1.384796
 O         3.280740        -0.533772        -1.880741
 C         2.783695        -0.755954        -0.481721
 O         3.077707         1.167352         1.094838
 C         1.720575         0.487914         1.275330
 H        -0.704308        -0.112620        -0.611919
 H        -0.101079        -1.513072        -1.130207
 H        -0.404629        -1.333140         0.618178
 H         1.709651         1.112756        -2.034802
 H         1.505265         2.286717        -0.463920
 H         4.171591         1.346548        -2.189553
 H         5.119542         0.107420        -0.936893
 H         3.357440        -1.550102         0.041460
 H         1.747588        -0.213764         2.123441
 H         1.113438         1.393858         1.491331
