19
Iteration:  3274
 C         0.009406        -0.806080        -0.304516
 C         1.257524         0.051565        -0.102152
 C         1.703282         1.306579        -0.911727
 C         3.098988         0.744242        -0.369500
 C         4.203701         0.526005        -1.466790
 O         3.551989        -0.730302        -1.823437
 C         2.625544        -0.658629        -0.376847
 O         3.111610         1.058643         1.075403
 C         1.817533         0.574458         1.317071
 H        -0.867165        -0.391329         0.267563
 H        -0.203683        -0.989049        -1.369040
 H         0.059741        -1.894658        -0.046467
 H         1.817304         0.983183        -2.024241
 H         1.318940         2.329316        -0.951129
 H         4.245932         1.182351        -2.314191
 H         5.202568         0.341451        -1.141768
 H         3.012478        -1.392778         0.331899
 H         1.787724        -0.285119         2.004105
 H         1.175882         1.423909         1.622364
