19
Iteration:  3751charge 0 multiplicity 1
 C        -0.012304        -0.783040        -0.237246
 C         1.323551        -0.110547        -0.154852
 C         1.717203         1.107445        -1.002437
 C         3.114867         0.848766        -0.308820
 C         4.247446         0.441010        -1.304258
 O         3.362016        -0.520104        -1.801256
 C         2.705055        -0.696616        -0.557060
 O         3.104701         1.239473         1.007494
 C         1.838138         0.442720         1.324266
 H        -0.661718        -0.026914         0.081144
 H        -0.146321        -0.851313        -1.300319
 H        -0.131148        -1.756736         0.230523
 H         1.959520         1.009928        -2.032055
 H         1.300147         2.141104        -0.694140
 H         4.487663         1.130839        -2.151741
 H         5.097393        -0.024940        -0.689900
 H         3.126828        -1.476850         0.097925
 H         1.997114        -0.362842         2.075256
 H         1.047964         1.137922         1.797464
