19
Iteration:  2189
 C         0.061403        -0.767025        -0.307393
 C         1.367855        -0.045015        -0.100906
 C         1.752514         1.239395        -0.956878
 C         3.136449         0.823698        -0.294874
 C         4.202568         0.436773        -1.330038
 O         3.312874        -0.650810        -1.844953
 C         2.687808        -0.685449        -0.556375
 O         3.071978         1.266981         1.074509
 C         1.864102         0.410552         1.301354
 H        -0.766873         0.053866        -0.391268
 H        -0.050624        -1.276283        -1.312512
 H        -0.153742        -1.527137         0.532720
 H         1.647710         1.165203        -2.021889
 H         1.259262         2.032856        -0.564058
 H         4.315363         1.177195        -2.114301
 H         5.261591         0.167098        -0.807030
 H         3.044917        -1.493638         0.139458
 H         2.111494        -0.596632         1.755837
 H         1.054538         0.911191         1.883083
