19
Iteration:   875
 C        -0.041784        -0.715671        -0.177915
 C         1.312838        -0.109075        -0.138912
 C         1.780067         1.267498        -0.745677
 C         3.192724         0.706313        -0.291508
 C         4.153827         0.691247        -1.402391
 O         3.378406        -0.486742        -2.036768
 C         2.780908        -0.683029        -0.677000
 O         3.162539         0.936369         1.146593
 C         1.702548         0.353369         1.292151
 H        -0.742900         0.043782        -0.637514
 H         0.023790        -1.725158        -0.762080
 H        -0.502604        -0.888444         0.881928
 H         1.843579         1.429213        -1.851934
 H         1.582201         2.261408        -0.218851
 H         4.146011         1.452701        -2.106144
 H         5.239486         0.444392        -1.033389
 H         3.227673        -1.523391        -0.207993
 H         1.682116        -0.475894         1.999976
 H         1.029346         1.074211         1.698997
