19
Iteration:   872charge 0 multiplicity 1
 C        -0.042352        -0.713719        -0.187973
 C         1.315207        -0.113956        -0.120434
 C         1.757664         1.285201        -0.752335
 C         3.180364         0.704741        -0.310315
 C         4.202820         0.690472        -1.386462
 O         3.385492        -0.490831        -2.032204
 C         2.753664        -0.673018        -0.683466
 O         3.153211         0.919235         1.156458
 C         1.732496         0.368435         1.305593
 H        -0.787642        -0.071902        -0.715977
 H         0.060835        -1.675233        -0.648576
 H        -0.445334        -0.864874         0.907682
 H         1.736762         1.477037        -1.842189
 H         1.552985         2.272411        -0.240559
 H         4.159024         1.458556        -2.224053
 H         5.228485         0.465968        -1.158942
 H         3.200807        -1.584412        -0.172364
 H         1.712270        -0.594850         1.921855
 H         0.922861         1.100111         1.637240
