19
Iteration:  3361charge 0 multiplicity 1
 C        -0.116542        -0.747288        -0.180129
 C         1.314980        -0.072939        -0.210071
 C         1.746768         1.196926        -0.968048
 C         3.109490         0.755571        -0.349080
 C         4.199143         0.534730        -1.321960
 O         3.538854        -0.658528        -1.829449
 C         2.646094        -0.666207        -0.486103
 O         3.174941         1.109993         1.035780
 C         1.767057         0.533914         1.274558
 H        -0.965873        -0.068963        -0.304431
 H        -0.252141        -1.465337        -1.005757
 H        -0.162759        -1.312413         0.758740
 H         1.648696         1.201242        -2.113592
 H         1.582957         2.231913        -0.522333
 H         4.375087         1.383927        -2.104538
 H         5.194353         0.307148        -0.949620
 H         3.001379        -1.540167         0.037471
 H         1.824212        -0.334564         2.013686
 H         1.090777         1.374204         1.608098
