19
Iteration:  4124charge 0 multiplicity 1
 C        -0.045622        -0.701922        -0.194405
 C         1.374300        -0.072142        -0.185704
 C         1.785073         1.200989        -0.937543
 C         3.117180         0.820093        -0.293120
 C         4.230614         0.559456        -1.322847
 O         3.429090        -0.676658        -1.816657
 C         2.710161        -0.677789        -0.559436
 O         3.087644         1.161361         1.014562
 C         1.744330         0.376008         1.246013
 H        -0.820599        -0.053508         0.372914
 H        -0.394793        -0.751032        -1.260358
 H        -0.017469        -1.779305         0.170382
 H         1.780413         1.325050        -2.086137
 H         1.366243         2.095401        -0.503819
 H         4.194231         1.135702        -2.216232
 H         5.272971         0.341610        -0.809901
 H         3.055752        -1.418082         0.121193
 H         2.025053        -0.370725         2.036516
 H         1.035247         1.081935         1.800930
