19
Iteration:   388
 C        -0.206593        -0.661833        -0.261123
 C         1.337215        -0.165767        -0.072594
 C         1.738637         1.261435        -0.579879
 C         3.203184         0.725216        -0.304172
 C         4.158568         0.799160        -1.403709
 O         3.173473        -0.092561        -2.091793
 C         2.743859        -0.658082        -0.794351
 O         3.247776         0.767698         1.134675
 C         2.069484         0.004474         1.372586
 H        -0.821246         0.106202        -0.700035
 H        -0.247322        -1.503160        -0.940678
 H        -0.594636        -0.977163         0.706110
 H         1.539541         1.489434        -1.627802
 H         1.411093         2.013994         0.186491
 H         4.220699         1.823243        -1.873640
 H         5.106507         0.334508        -1.287661
 H         3.180984        -1.649173        -0.735921
 H         2.403024        -1.002764         1.809240
 H         1.285013         0.333407         2.121604
