19
Iteration:  3133charge 0 multiplicity 1
 C        -0.050193        -0.730960        -0.262786
 C         1.359382        -0.108177        -0.070576
 C         1.867304         1.157764        -0.972048
 C         3.233342         0.741284        -0.284199
 C         4.178181         0.636889        -1.439598
 O         3.352104        -0.586843        -1.825543
 C         2.752675        -0.756748        -0.400109
 O         3.090427         1.179859         1.037067
 C         1.656719         0.469824         1.242540
 H        -0.666986         0.188778        -0.217449
 H        -0.099575        -1.403206        -1.130793
 H        -0.222272        -1.475215         0.582313
 H         1.672195         0.871407        -2.044278
 H         1.555647         2.141782        -0.782810
 H         4.250413         1.302922        -2.283085
 H         5.317775         0.295590        -1.200009
 H         3.030389        -1.680876         0.127551
 H         1.930207        -0.343184         1.932041
 H         0.937440         1.119634         1.707689
