19
Iteration:  4339charge 0 multiplicity 1
 C        -0.003969        -0.836123        -0.305588
 C         1.345366        -0.023920        -0.113778
 C         1.778935         1.206602        -0.886617
 C         3.203740         0.752869        -0.384793
 C         4.274578         0.438491        -1.380540
 O         3.317350        -0.608186        -1.837378
 C         2.768193        -0.670731        -0.502525
 O         3.019318         1.295019         1.069479
 C         1.757490         0.451976         1.331174
 H        -0.906878        -0.452061         0.133929
 H        -0.174734        -0.726953        -1.353699
 H         0.217238        -1.896572         0.005295
 H         1.585210         1.147683        -2.070513
 H         1.527991         2.233077        -0.508320
 H         4.504331         1.118608        -2.218393
 H         5.126560         0.111628        -0.853750
 H         3.027897        -1.504886         0.236417
 H         1.955738        -0.491657         1.857717
 H         1.009861         1.070485         1.801846
