19
Iteration:  4457charge 0 multiplicity 1
 C        -0.039458        -0.816244        -0.284490
 C         1.382898        -0.083765        -0.170601
 C         1.670381         1.157716        -0.932870
 C         3.130964         0.804551        -0.316676
 C         4.232958         0.513765        -1.287097
 O         3.322583        -0.552254        -1.823958
 C         2.779204        -0.697835        -0.440623
 O         3.130771         1.159467         0.989346
 C         1.816756         0.530299         1.307023
 H        -0.826579        -0.085208        -0.228179
 H        -0.108596        -1.113053        -1.318979
 H        -0.265316        -1.662114         0.429179
 H         1.894865         1.093292        -2.051121
 H         1.252931         2.079437        -0.635604
 H         4.714832         1.072080        -2.222213
 H         5.014217         0.114298        -0.666076
 H         3.067665        -1.662464        -0.153865
 H         1.978544        -0.321407         1.991298
 H         1.093379         1.293962         1.546876
