19
Iteration:  2952charge 0 multiplicity 1
 C         0.078253        -0.826565        -0.203215
 C         1.350655        -0.040420        -0.188866
 C         1.771069         1.337587        -0.951743
 C         3.212635         0.855938        -0.295601
 C         4.264444         0.494782        -1.428570
 O         3.337193        -0.678248        -1.821397
 C         2.701432        -0.608858        -0.567869
 O         3.000492         1.116458         1.121707
 C         1.759024         0.463143         1.314137
 H        -0.983948        -0.456955        -0.133792
 H         0.181699        -1.413528        -1.142100
 H        -0.047104        -1.549900         0.593587
 H         1.659842         1.175705        -2.022331
 H         1.318354         2.233990        -0.470854
 H         4.533381         1.177036        -2.367988
 H         5.196893         0.024757        -1.107659
 H         2.956239        -1.561743        -0.061470
 H         1.994394        -0.345735         1.944797
 H         0.890284         1.024801         1.657726
