19
Iteration:  1937charge 0 multiplicity 1
 C        -0.112703        -0.700840        -0.233938
 C         1.289463        -0.097978        -0.174766
 C         1.721151         1.190768        -0.917061
 C         3.117059         0.813935        -0.339668
 C         4.308514         0.496374        -1.333162
 O         3.503900        -0.606784        -1.802232
 C         2.777461        -0.682783        -0.536739
 O         3.105586         1.130234         1.010641
 C         1.793653         0.462264         1.289829
 H        -0.726637        -0.271488         0.560683
 H        -0.780286        -0.562695        -1.049480
 H        -0.046722        -1.749451         0.001181
 H         1.580179         1.092395        -2.042190
 H         1.047125         2.134994        -0.563396
 H         4.110151         1.223562        -2.175883
 H         5.284248         0.261292        -1.038689
 H         2.922634        -1.551663         0.152464
 H         1.878976        -0.423271         1.916528
 H         1.010554         1.111854         1.679187
