19
Iteration:  1951charge 0 multiplicity 1
 C        -0.072971        -0.709719        -0.213775
 C         1.301729        -0.049058        -0.213399
 C         1.704596         1.223248        -0.956107
 C         3.116107         0.827911        -0.376333
 C         4.210762         0.611022        -1.330079
 O         3.478017        -0.714583        -1.748702
 C         2.653862        -0.640791        -0.516614
 O         3.102011         1.117214         1.007412
 C         1.852663         0.358520         1.272356
 H        -0.727275        -0.179000         0.407245
 H        -0.330068        -0.719552        -1.305264
 H        -0.077688        -1.791460         0.116729
 H         1.714654         1.153025        -2.044215
 H         1.446323         2.199566        -0.558178
 H         4.666802         1.286825        -2.142640
 H         5.042374         0.309543        -0.679165
 H         3.127981        -1.387629         0.083342
 H         2.168442        -0.477196         1.951526
 H         1.239753         1.128200         1.866532
