19
Iteration:  3516charge 0 multiplicity 1
 C        -0.002164        -0.667780        -0.241834
 C         1.304750        -0.055350        -0.104527
 C         1.805200         1.145739        -0.942211
 C         3.166181         0.718552        -0.351095
 C         4.266372         0.505425        -1.440457
 O         3.461632        -0.579586        -1.878837
 C         2.688529        -0.735750        -0.441178
 O         3.000628         1.242939         1.049924
 C         1.737336         0.402509         1.325573
 H        -0.811429        -0.012519        -0.337540
 H        -0.143883        -1.352863        -1.075699
 H        -0.226064        -1.242453         0.629467
 H         1.724391         0.933089        -2.000638
 H         1.499533         2.198735        -0.546994
 H         4.284210         1.266742        -2.258561
 H         5.246124         0.103146        -1.008123
 H         3.075717        -1.601106         0.062215
 H         2.053872        -0.313325         2.143215
 H         1.061465         1.071960         1.832379
