19
Iteration:  3170
 C        -0.070051        -0.694305        -0.126663
 C         1.338235        -0.130177        -0.163264
 C         1.666113         1.264081        -0.945424
 C         3.076124         0.839139        -0.406799
 C         4.264926         0.565868        -1.394415
 O         3.602094        -0.698137        -1.820771
 C         2.680622        -0.644526        -0.435025
 O         3.128522         1.055355         1.020924
 C         1.725477         0.443347         1.239478
 H        -0.783731         0.066769        -0.326999
 H        -0.382558        -1.276091        -0.992633
 H        -0.419069        -1.152216         0.791322
 H         1.581064         1.146114        -2.011805
 H         1.284846         2.312512        -0.649450
 H         4.385051         1.278775        -2.252417
 H         5.204019         0.358176        -0.870408
 H         3.189583        -1.437872         0.117186
 H         1.958165        -0.397459         1.972064
 H         0.880049         1.078783         1.635022
