19
Iteration:  3031
 C        -0.100564        -0.698881        -0.182533
 C         1.326896        -0.086811        -0.077992
 C         1.812885         1.094153        -0.946898
 C         3.190050         0.714138        -0.349364
 C         4.273793         0.629868        -1.385682
 O         3.401229        -0.551747        -1.842246
 C         2.890357        -0.746821        -0.487548
 O         2.980782         1.084915         1.009119
 C         1.723828         0.509951         1.289231
 H        -0.833046         0.060877         0.329359
 H        -0.491544        -0.653629        -1.210379
 H        -0.173944        -1.641547         0.374978
 H         1.671977         1.007794        -1.989046
 H         1.473946         2.147895        -0.809213
 H         4.264187         1.444445        -2.231876
 H         5.289664         0.182157        -1.143790
 H         3.339754        -1.625280        -0.016447
 H         1.697205        -0.296559         1.987218
 H         0.999755         1.273273         1.561071
