19
Iteration:  3916charge 0 multiplicity 1
 C        -0.022776        -0.750175        -0.217966
 C         1.289820        -0.062660        -0.116845
 C         1.746257         1.175861        -0.897501
 C         3.139128         0.748417        -0.334747
 C         4.284795         0.604529        -1.421384
 O         3.503845        -0.637068        -1.857521
 C         2.706508        -0.639246        -0.518918
 O         3.072859         1.025224         1.074215
 C         1.743591         0.533179         1.256242
 H        -0.804415         0.024254        -0.074947
 H        -0.214880        -1.141396        -1.201986
 H        -0.252930        -1.551782         0.520673
 H         1.660505         1.005525        -1.984395
 H         1.104306         2.107598        -0.567233
 H         4.378773         1.323315        -2.203351
 H         5.105420         0.262016        -0.832537
 H         3.169815        -1.397166         0.110501
 H         1.798673        -0.043065         2.137860
 H         0.942011         1.296586         1.471227
