19
Iteration:  3194
 C        -0.110183        -0.714031        -0.204940
 C         1.291951        -0.027488        -0.108509
 C         1.700078         1.189869        -0.994543
 C         3.132616         0.817522        -0.371367
 C         4.277610         0.490841        -1.250426
 O         3.517353        -0.644520        -1.838342
 C         2.704061        -0.642730        -0.500226
 O         3.031077         1.164644         0.962882
 C         1.899844         0.408651         1.266288
 H        -1.052294        -0.176990        -0.043432
 H        -0.455439        -1.242023        -1.084573
 H        -0.079134        -1.351831         0.658130
 H         1.291669         0.960422        -2.022127
 H         1.356091         2.274566        -0.699997
 H         4.564868         1.160471        -2.130011
 H         5.081937         0.134423        -0.706952
 H         3.199776        -1.494209         0.049637
 H         2.144945        -0.499681         1.899215
 H         1.180518         1.065882         1.877282
