19
Iteration:  2562
 C        -0.066252        -0.722734        -0.134390
 C         1.288670        -0.029246        -0.221312
 C         1.715740         1.215268        -0.938284
 C         3.111232         0.767332        -0.395926
 C         4.302755         0.533162        -1.364843
 O         3.513972        -0.626438        -1.781436
 C         2.683285        -0.662266        -0.570746
 O         3.083473         1.082240         1.079272
 C         1.762382         0.440291         1.245963
 H        -0.999435        -0.100468        -0.115976
 H        -0.336054        -1.447449        -0.925796
 H         0.166047        -1.314179         0.759052
 H         1.528845         1.110067        -2.089474
 H         1.396610         2.293487        -0.576344
 H         4.478991         1.264318        -2.153791
 H         5.378780         0.462614        -0.875387
 H         3.043323        -1.444737         0.111424
 H         1.857294        -0.438367         1.848449
 H         1.110266         1.238269         1.635881
