19
Iteration:  4808charge 0 multiplicity 1
 C        -0.031161        -0.779055        -0.369304
 C         1.277762         0.031441        -0.061690
 C         1.738100         1.220279        -0.856291
 C         3.166981         0.845630        -0.377275
 C         4.247300         0.500733        -1.485551
 O         3.439773        -0.689830        -1.787696
 C         2.749272        -0.633597        -0.436003
 O         3.100956         1.067004         0.994696
 C         1.708000         0.504991         1.390457
 H        -0.898248        -0.212861        -0.078126
 H        -0.110112        -1.202836        -1.396667
 H         0.088873        -1.697081         0.288894
 H         1.719675         0.998866        -1.857511
 H         1.273893         2.193142        -0.628236
 H         4.448890         1.124059        -2.459106
 H         5.199661         0.194146        -1.087086
 H         3.123127        -1.324423         0.373786
 H         1.935345        -0.330356         1.977688
 H         1.047443         1.358084         1.735126
