19
Iteration:  4125charge 0 multiplicity 1
 C        -0.040817        -0.702891        -0.188797
 C         1.384475        -0.084331        -0.193805
 C         1.797835         1.202183        -0.933400
 C         3.120553         0.816031        -0.286654
 C         4.228967         0.555756        -1.320411
 O         3.424456        -0.670786        -1.822881
 C         2.709971        -0.677668        -0.554877
 O         3.078419         1.163793         1.013707
 C         1.737511         0.384250         1.246542
 H        -0.820706        -0.071746         0.371652
 H        -0.404024        -0.732455        -1.261733
 H        -0.039771        -1.757870         0.161283
 H         1.758697         1.305207        -2.096157
 H         1.381568         2.087777        -0.471360
 H         4.183195         1.119785        -2.226251
 H         5.244174         0.336485        -0.841810
 H         3.084396        -1.413129         0.113641
 H         2.001370        -0.353190         2.001669
 H         1.060504         1.089775         1.800511
