19
Iteration:  3217
 C         0.025666        -0.728522        -0.198535
 C         1.328574        -0.085601        -0.109732
 C         1.830725         1.127862        -0.990125
 C         3.189513         0.767629        -0.299134
 C         4.299779         0.447647        -1.339003
 O         3.364063        -0.595588        -1.870247
 C         2.679402        -0.682381        -0.552160
 O         2.969522         1.329802         1.010160
 C         1.784252         0.402244         1.344582
 H        -0.884479        -0.197773         0.198717
 H        -0.339408        -0.711477        -1.226142
 H        -0.036312        -1.667557         0.323525
 H         1.881993         1.071049        -2.169808
 H         1.318825         2.099159        -0.666123
 H         4.643473         1.044934        -2.249753
 H         5.069927        -0.045293        -0.879851
 H         3.067689        -1.520877         0.084957
 H         1.966703        -0.487372         2.008476
 H         1.071960         1.110007         1.895415
