19
Iteration:   301charge 0 multiplicity 1
 C        -0.010930        -0.727837        -0.202768
 C         1.334169        -0.088323        -0.114143
 C         1.730074         1.335182        -0.536574
 C         3.143955         0.680368        -0.243649
 C         4.121259         0.880236        -1.488576
 O         3.227243        -0.109527        -2.176581
 C         2.616959        -0.606927        -0.858409
 O         3.288335         0.557029         1.188085
 C         2.026750         0.049982         1.438115
 H        -0.000748        -1.684955        -0.767742
 H        -0.565459        -0.867539         0.751490
 H        -0.685550        -0.052730        -0.806735
 H         1.638438         1.744540        -1.581961
 H         1.250997         2.142880         0.233080
 H         4.047554         1.922184        -1.861085
 H         5.122875         0.616313        -1.422100
 H         3.006476        -1.622745        -0.733326
 H         1.910091        -0.931385         1.992577
 H         1.240216         0.716678         1.907863
