19
Iteration:  3922
 C        -0.087333        -0.730050        -0.190478
 C         1.345690        -0.120279        -0.147450
 C         1.766100         1.134218        -0.916312
 C         3.174817         0.789107        -0.344257
 C         4.240770         0.626485        -1.374469
 O         3.474263        -0.633692        -1.849246
 C         2.711610        -0.676021        -0.516097
 O         3.068681         1.050510         1.050478
 C         1.706593         0.535150         1.263656
 H        -0.831430         0.057909        -0.000510
 H        -0.150902        -0.963832        -1.299374
 H        -0.157705        -1.595881         0.521236
 H         1.786280         1.115147        -1.994726
 H         1.345423         1.955313        -0.396777
 H         4.444577         1.446402        -2.135183
 H         5.257633         0.226184        -1.001283
 H         3.282191        -1.443948         0.034939
 H         1.775507        -0.125453         2.194726
 H         1.018057         1.370331         1.391784
