19
Iteration:  4786
 C        -0.000482        -0.734579        -0.354942
 C         1.390398        -0.047224        -0.102710
 C         1.744181         1.245677        -0.952937
 C         3.155777         0.809534        -0.326653
 C         4.235359         0.482613        -1.369993
 O         3.289286        -0.731457        -1.798605
 C         2.714862        -0.634879        -0.455819
 O         3.016169         1.278536         1.056256
 C         1.878111         0.377734         1.342396
 H        -0.790334        -0.014216        -0.390908
 H         0.190619        -1.164079        -1.359204
 H        -0.188022        -1.676084         0.236080
 H         1.565498         1.051908        -1.942278
 H         1.509367         2.257481        -0.634190
 H         4.459254         1.160054        -2.269195
 H         5.130002         0.033347        -1.009272
 H         3.256625        -1.407292         0.146957
 H         2.254665        -0.500725         1.779589
 H         1.054016         0.945840         1.805114
