19
Iteration:  2457
 C        -0.013815        -0.811477        -0.271255
 C         1.320226         0.016509        -0.175324
 C         1.768069         1.266587        -0.955424
 C         3.129881         0.831422        -0.289515
 C         4.188081         0.520371        -1.514319
 O         3.429417        -0.722121        -1.777778
 C         2.708698        -0.601169        -0.476745
 O         3.129216         1.096904         1.139123
 C         1.779816         0.447004         1.265524
 H        -0.886681        -0.359355         0.130740
 H        -0.140344        -1.077913        -1.355783
 H        -0.051906        -1.823039         0.231267
 H         1.762629         1.292746        -2.047339
 H         1.438322         2.159000        -0.571254
 H         4.206716         1.334217        -2.291877
 H         5.090180         0.206901        -1.063991
 H         3.039898        -1.333007         0.300727
 H         1.730888        -0.244811         2.131146
 H         1.060290         1.236281         1.593410
