19
Iteration:  3844
 C         0.042728        -0.743247        -0.294093
 C         1.364411        -0.113844        -0.046088
 C         1.760589         1.101946        -0.884098
 C         3.182089         0.749764        -0.362024
 C         4.316742         0.529864        -1.381803
 O         3.326806        -0.594043        -1.951532
 C         2.726571        -0.661539        -0.459696
 O         2.987338         1.207126         1.089387
 C         1.749794         0.512335         1.319624
 H        -0.669187         0.105373        -0.084494
 H        -0.107403        -1.055525        -1.381679
 H        -0.214873        -1.592665         0.364436
 H         1.767689         0.779580        -1.972866
 H         1.503889         2.074665        -0.720207
 H         4.441780         1.299426        -2.204142
 H         5.139114         0.025069        -0.907640
 H         3.321367        -1.489696         0.002519
 H         1.819347        -0.266915         2.135873
 H         1.007502         1.232053         1.692153
