19
Iteration:   333charge 0 multiplicity 1
 C        -0.038439        -0.829094        -0.274947
 C         1.308617        -0.047563        -0.078302
 C         1.730406         1.436339        -0.469655
 C         3.184606         0.845827        -0.324610
 C         4.137591         0.782287        -1.483189
 O         3.204534        -0.206663        -2.079075
 C         2.610781        -0.456062        -0.755048
 O         3.372710         0.571308         1.102193
 C         1.901096        -0.065938         1.364119
 H        -0.182156        -1.105218        -1.321787
 H        -0.119488        -1.641083         0.453330
 H        -0.772996        -0.074574        -0.055450
 H         1.704937         1.791246        -1.510171
 H         1.296094         2.253131         0.198506
 H         4.132952         1.750043        -2.053482
 H         5.081902         0.409090        -1.331359
 H         3.081266        -1.365606        -0.393342
 H         2.024606        -1.105144         1.795289
 H         1.259148         0.681183         1.932394
