19
Iteration:  1603
 C         0.001311        -0.669807        -0.257085
 C         1.305879        -0.034882        -0.094337
 C         1.764925         1.129291        -0.872067
 C         3.153037         0.709002        -0.288889
 C         4.213483         0.559405        -1.369082
 O         3.370121        -0.544364        -1.916218
 C         2.704571        -0.645034        -0.574462
 O         3.043171         1.158053         1.019650
 C         1.823764         0.326356         1.371199
 H         0.260940        -1.476006        -0.881254
 H        -0.341069        -0.990249         0.730829
 H        -0.598884        -0.095186        -0.873316
 H         1.640809         1.021519        -1.982629
 H         1.520544         2.232244        -0.634470
 H         4.447716         1.262226        -2.093302
 H         5.194652         0.173341        -0.934757
 H         3.103779        -1.566560        -0.083666
 H         2.189770        -0.481862         2.052757
 H         1.113856         1.033562         1.890673
