19
Iteration:   688
 C        -0.065113        -0.705685        -0.237267
 C         1.319032        -0.103372        -0.123563
 C         1.740904         1.246917        -0.804542
 C         3.173565         0.754431        -0.268724
 C         4.174325         0.645434        -1.328459
 O         3.236953        -0.247622        -2.087588
 C         2.703682        -0.667413        -0.669295
 O         3.184532         0.935678         1.124711
 C         1.952939         0.126051         1.393388
 H        -0.752957        -0.491982         0.581617
 H        -0.586420        -0.261513        -1.080011
 H        -0.100545        -1.851481        -0.305812
 H         1.623852         1.184626        -1.916350
 H         1.347313         2.234923        -0.339917
 H         4.539995         1.496564        -1.949041
 H         5.124176         0.054446        -0.930100
 H         3.252522        -1.557029        -0.379678
 H         2.268169        -0.739973         2.060220
 H         1.300284         0.793086         1.951251
