19
Iteration:  4173
 C         0.029355        -0.854021        -0.317002
 C         1.335709        -0.016575        -0.099064
 C         1.755228         1.206288        -0.939934
 C         3.155454         0.790914        -0.339454
 C         4.189807         0.465770        -1.355942
 O         3.371851        -0.594873        -1.866853
 C         2.711808        -0.623939        -0.489880
 O         3.112465         1.081793         1.090698
 C         1.752315         0.550178         1.292531
 H        -0.739958        -0.290341         0.189630
 H        -0.307154        -0.850487        -1.348593
 H         0.047732        -1.835285         0.140631
 H         1.854729         1.008297        -1.978328
 H         1.408218         2.277916        -0.729859
 H         4.465412         1.350235        -2.001076
 H         5.025591         0.052689        -0.918679
 H         3.143878        -1.475550         0.130458
 H         1.860282        -0.128817         2.113805
 H         1.090367         1.297338         1.636013
