19
Iteration:  4216
 C        -0.080387        -0.732832        -0.265482
 C         1.248795        -0.023526        -0.128917
 C         1.712864         1.339245        -0.874525
 C         3.134282         0.867211        -0.347117
 C         4.259252         0.457282        -1.405116
 O         3.545331        -0.746019        -1.841977
 C         2.707606        -0.598820        -0.491823
 O         3.022428         1.181831         1.058645
 C         1.847397         0.307550         1.298181
 H        -0.968635        -0.116047        -0.311080
 H         0.055436        -1.291559        -1.208406
 H        -0.095477        -1.444252         0.537301
 H         1.587795         1.218029        -1.920997
 H         1.274497         2.365733        -0.616495
 H         4.352617         0.986841        -2.401718
 H         5.163083         0.330084        -0.963118
 H         3.191802        -1.356042         0.157294
 H         2.018905        -0.536092         1.890128
 H         1.134586         0.898802         1.780503
