19
Iteration:  2590charge 0 multiplicity 1
 C        -0.071226        -0.695107        -0.247899
 C         1.382422        -0.134346        -0.112180
 C         1.828534         1.160859        -0.929728
 C         3.146794         0.786129        -0.337165
 C         4.201647         0.564913        -1.424477
 O         3.400829        -0.613553        -1.841057
 C         2.782433        -0.661365        -0.523874
 O         3.085486         1.091234         1.089736
 C         1.702752         0.484321         1.298897
 H        -0.776854         0.129942        -0.514401
 H        -0.127443        -1.465956        -1.024018
 H        -0.223299        -1.298449         0.674136
 H         1.807047         0.843108        -1.910902
 H         1.421872         2.075447        -0.664199
 H         4.195946         1.380286        -2.263024
 H         5.121954         0.372887        -0.970076
 H         3.219887        -1.475103         0.075600
 H         1.638188        -0.231786         2.247038
 H         1.019569         1.379685         1.519509
