19
Iteration:  2196charge 0 multiplicity 1
 C         0.009010        -0.757759        -0.295763
 C         1.406529        -0.057191        -0.157259
 C         1.732399         1.208913        -0.938375
 C         3.102853         0.797763        -0.261429
 C         4.181868         0.443443        -1.335187
 O         3.331347        -0.631337        -1.906341
 C         2.734485        -0.706780        -0.502460
 O         3.061518         1.267200         1.029858
 C         1.862076         0.391630         1.347609
 H        -0.608614         0.197234        -0.438717
 H         0.024186        -1.260537        -1.241406
 H        -0.290784        -1.328560         0.545210
 H         1.870167         1.127813        -2.069992
 H         1.279649         2.240805        -0.551880
 H         4.355783         1.252870        -2.063484
 H         4.995058         0.101859        -0.607581
 H         3.171671        -1.433090         0.132176
 H         2.267339        -0.470154         2.010385
 H         1.050111         0.979993         1.850155
