19
Iteration:  1231
 C        -0.060957        -0.839453        -0.206942
 C         1.329812        -0.175685        -0.105759
 C         1.878474         1.255347        -0.879143
 C         3.186934         0.780644        -0.240340
 C         4.232475         0.596036        -1.406931
 O         3.364907        -0.595452        -1.925584
 C         2.723910        -0.591305        -0.633136
 O         3.099431         1.041059         1.075882
 C         1.667578         0.496734         1.314140
 H        -0.611118        -0.392901        -1.078414
 H         0.178108        -2.038848        -0.144385
 H        -0.799286        -0.503601         0.604655
 H         2.030450         1.178720        -1.946814
 H         1.497162         2.240328        -0.584340
 H         4.429083         1.441188        -2.129805
 H         5.243772         0.100137        -1.114552
 H         3.090128        -1.465088        -0.058516
 H         1.705032         0.019926         2.284571
 H         1.062688         1.437774         1.489042
