19
Iteration:   245
 C        -0.026069        -0.660614        -0.269699
 C         1.319286        -0.063169        -0.062141
 C         1.678996         1.364516        -0.383268
 C         3.116122         0.788887        -0.265332
 C         4.104835         0.802530        -1.445722
 O         3.258619        -0.152669        -2.150768
 C         2.560478        -0.525632        -0.860852
 O         3.306742         0.718010         1.147844
 C         2.108334        -0.246807         1.299604
 H        -0.430319        -1.120778         0.690844
 H        -0.755181         0.156922        -0.421148
 H        -0.178973        -1.295955        -1.115208
 H         1.346341         1.445679        -1.435296
 H         1.488369         2.245670         0.359809
 H         4.287713         1.754501        -2.018849
 H         4.974559         0.378101        -1.149150
 H         2.826989        -1.558200        -0.728152
 H         2.426886        -1.299941         1.459110
 H         1.382904         0.157087         2.077528
