19
Iteration:  4386charge 0 multiplicity 1
 C        -0.102954        -0.719340        -0.205968
 C         1.283068        -0.157927        -0.192962
 C         1.741709         1.166376        -0.947653
 C         3.158679         0.809284        -0.284964
 C         4.226773         0.725208        -1.377261
 O         3.453468        -0.678627        -1.762190
 C         2.786518        -0.725828        -0.460092
 O         3.149402         1.060162         1.023742
 C         1.724051         0.487342         1.175037
 H        -0.811927         0.159267        -0.102912
 H        -0.405717        -1.126132        -1.210661
 H        -0.099959        -1.324650         0.680488
 H         1.773690         1.136734        -2.013563
 H         1.065137         2.036103        -0.674246
 H         4.226168         1.474002        -2.079693
 H         5.283349         0.412278        -1.093585
 H         3.150767        -1.629211         0.172957
 H         1.936550        -0.281134         1.964446
 H         1.181781         1.429124         1.529861
