19
Iteration:  4243charge 0 multiplicity 1
 C        -0.024325        -0.626787        -0.213136
 C         1.350006        -0.152931        -0.121827
 C         1.782637         1.083438        -0.991608
 C         3.179764         0.759492        -0.258163
 C         4.241525         0.599909        -1.403973
 O         3.397433        -0.555101        -1.843625
 C         2.783799        -0.682327        -0.443935
 O         2.982743         1.149600         1.041713
 C         1.760702         0.380808         1.248150
 H        -0.568305         0.357372        -0.249641
 H        -0.304200        -1.072298        -1.171319
 H        -0.283080        -1.106409         0.773519
 H         1.704080         0.876636        -2.120079
 H         1.447965         2.096079        -0.799894
 H         4.322869         1.188417        -2.312323
 H         5.345648         0.304132        -1.043656
 H         3.247273        -1.599810         0.029349
 H         1.902646        -0.508639         1.999010
 H         0.966196         1.033836         1.772248
