19
Iteration:  4758
 C        -0.053261        -0.679342        -0.237341
 C         1.383109        -0.107577        -0.145497
 C         1.756788         1.132859        -0.977888
 C         3.166784         0.758064        -0.307561
 C         4.201731         0.480641        -1.346867
 O         3.380237        -0.556808        -1.829313
 C         2.739603        -0.733464        -0.453800
 O         3.047747         1.247844         1.011717
 C         1.800631         0.455315         1.294227
 H        -0.928917         0.047987        -0.310979
 H        -0.097307        -1.177696        -1.232052
 H        -0.188265        -1.421044         0.520827
 H         1.607629         1.027862        -2.151486
 H         1.541227         2.127471        -0.531741
 H         4.508221         1.127525        -2.137520
 H         5.200411         0.098641        -0.897980
 H         3.224231        -1.653495         0.021829
 H         2.048378        -0.521045         1.879341
 H         1.044707         1.037408         1.849551
