19
Iteration:  3319charge 0 multiplicity 1
 C        -0.038235        -0.629010        -0.170172
 C         1.359041        -0.171593        -0.189827
 C         1.767239         1.103477        -1.023748
 C         3.189078         0.842533        -0.366529
 C         4.265877         0.413820        -1.348556
 O         3.406495        -0.582530        -1.912409
 C         2.747159        -0.664918        -0.404369
 O         2.970313         1.259446         1.082840
 C         1.811747         0.394319         1.284967
 H        -0.668942         0.274695        -0.148991
 H        -0.352243        -1.260527        -1.026218
 H        -0.459328        -1.262295         0.653729
 H         1.690613         1.269567        -2.086752
 H         1.174139         1.922477        -0.590911
 H         4.593798         1.103393        -2.038862
 H         5.136258         0.028956        -0.830446
 H         3.225277        -1.450395         0.149838
 H         2.166297        -0.431787         1.912540
 H         0.997466         0.936575         1.724365
