19
Iteration:  1090charge 0 multiplicity 1
 C         0.002003        -0.762846        -0.266359
 C         1.348805        -0.054020        -0.108874
 C         1.837712         1.199914        -0.817482
 C         3.168122         0.736179        -0.303810
 C         4.184006         0.566547        -1.354456
 O         3.312747        -0.485487        -1.955055
 C         2.744358        -0.679870        -0.531812
 O         3.098126         1.024238         1.042580
 C         1.749465         0.440272         1.280140
 H         0.315395        -1.768774        -0.608734
 H        -0.528549        -0.787113         0.770496
 H        -0.749078        -0.182919        -0.908430
 H         1.745320         1.252666        -1.886890
 H         1.473398         2.046213        -0.307239
 H         4.208194         1.382802        -2.244581
 H         5.148025         0.219302        -1.029662
 H         3.193314        -1.554791         0.045661
 H         1.836187        -0.385160         2.021907
 H         1.123953         1.224187         1.804469
