19
Iteration:  2392
 C        -0.071320        -0.678291        -0.150001
 C         1.289769        -0.137495        -0.141111
 C         1.724425         1.141534        -0.982219
 C         3.145080         0.738709        -0.349977
 C         4.236978         0.543985        -1.314508
 O         3.476928        -0.568119        -1.823622
 C         2.720452        -0.663192        -0.600754
 O         3.057905         1.154499         1.020711
 C         1.811427         0.398438         1.304551
 H        -0.701947         0.218502        -0.111098
 H        -0.205969        -1.394795        -0.988446
 H        -0.325834        -1.163774         0.816163
 H         1.753805         1.157497        -2.103615
 H         1.447939         2.213887        -0.779122
 H         4.534051         1.395905        -2.100542
 H         5.140771         0.038733        -0.947628
 H         3.297719        -1.402743         0.022983
 H         1.897119        -0.313557         2.085263
 H         1.077835         1.162004         1.589259
