19
Iteration:  2223
 C        -0.128664        -0.703275        -0.228533
 C         1.354583        -0.074404        -0.061018
 C         1.685838         1.095770        -0.926460
 C         3.192680         0.766546        -0.350046
 C         4.351149         0.545462        -1.416595
 O         3.413164        -0.555965        -1.817433
 C         2.739771        -0.660485        -0.530040
 O         3.064254         1.124887         1.023510
 C         1.769221         0.432439         1.273683
 H        -0.742151         0.222963        -0.367341
 H        -0.049087        -1.412332        -1.122953
 H        -0.644208        -1.179824         0.727357
 H         1.557351         0.981758        -1.967251
 H         1.333038         2.024204        -0.594931
 H         4.368054         1.306667        -2.233738
 H         5.423294         0.298031        -0.887500
 H         3.229105        -1.500309         0.071547
 H         2.006549        -0.401411         2.040980
 H         1.060752         1.153556         1.733851
