19
Iteration:   447
 C        -0.043646        -0.799621        -0.196562
 C         1.327924        -0.028692        -0.152029
 C         1.789760         1.394160        -0.512156
 C         3.219465         0.751075        -0.273136
 C         4.114152         0.777646        -1.480975
 O         3.246078        -0.235105        -2.101783
 C         2.640248        -0.567964        -0.751751
 O         3.317018         0.780436         1.181165
 C         1.806876        -0.034431         1.258240
 H        -0.480954        -0.826293         0.802846
 H        -0.857689        -0.559301        -0.906231
 H         0.128510        -1.900056        -0.369282
 H         1.656993         1.716234        -1.595470
 H         1.492767         2.295710         0.148604
 H         4.099657         1.691951        -1.952187
 H         5.111536         0.400455        -1.344547
 H         2.960553        -1.604674        -0.436495
 H         2.233517        -0.981453         1.642868
 H         1.146177         0.561330         1.864271
