19
Iteration:  3377
 C        -0.042646        -0.791743        -0.277633
 C         1.240541         0.011714        -0.213942
 C         1.700740         1.303747        -0.886419
 C         3.145977         0.785211        -0.352570
 C         4.253264         0.549606        -1.436814
 O         3.477007        -0.727115        -1.699157
 C         2.738723        -0.695380        -0.540632
 O         3.174275         1.064968         0.995172
 C         1.727113         0.523087         1.327637
 H        -0.853371        -0.027008        -0.049459
 H        -0.164325        -1.318806        -1.323741
 H         0.092535        -1.471638         0.627353
 H         1.707311         1.193632        -1.939378
 H         1.122888         2.115998        -0.432519
 H         4.202447         1.125804        -2.299013
 H         5.255727         0.319439        -1.033968
 H         2.913197        -1.452587         0.261938
 H         1.805909        -0.056336         2.213282
 H         1.094109         1.346227         1.632434
