19
Iteration:  2117
 C        -0.101739        -0.751699        -0.174101
 C         1.345903        -0.102389        -0.141638
 C         1.787651         1.140955        -1.013729
 C         3.164452         0.768488        -0.321045
 C         4.267069         0.530813        -1.341437
 O         3.402485        -0.549001        -1.824811
 C         2.761324        -0.700838        -0.480316
 O         3.078794         1.115514         0.996554
 C         1.717629         0.505563         1.284401
 H        -0.761780        -0.375696         0.599508
 H        -0.472276        -0.449277        -1.173831
 H        -0.046723        -1.854437        -0.191475
 H         1.658871         1.015210        -2.103940
 H         1.582777         2.290977        -0.651138
 H         4.459665         1.536631        -1.944134
 H         5.231460         0.131411        -1.044109
 H         3.151118        -1.512244         0.133249
 H         1.988174        -0.297276         1.991332
 H         0.955727         1.179217         1.720126
