19
Iteration:  1027charge 0 multiplicity 1
 C        -0.070751        -0.667840        -0.227405
 C         1.363621        -0.110560        -0.119104
 C         1.755940         1.240124        -0.879393
 C         3.102479         0.864011        -0.326649
 C         4.222002         0.639911        -1.340284
 O         3.418792        -0.576292        -1.955307
 C         2.696766        -0.713827        -0.594915
 O         3.084855         1.038963         1.062901
 C         1.870834         0.306857         1.386757
 H        -0.198637        -1.699422        -0.009928
 H        -0.713077        -0.197617         0.407234
 H        -0.401227        -0.614337        -1.273306
 H         1.766269         1.295116        -2.008373
 H         1.244080         2.134831        -0.375612
 H         4.265050         1.288536        -2.251665
 H         5.174705         0.349406        -0.871540
 H         3.069871        -1.640471        -0.123478
 H         2.199841        -0.504994         2.106002
 H         1.001725         0.902458         1.719323
