19
Iteration:  3942charge 0 multiplicity 1
 C        -0.066956        -0.692594        -0.217202
 C         1.343711        -0.117364        -0.180566
 C         1.832488         1.155177        -0.981783
 C         3.171492         0.671920        -0.253717
 C         4.215451         0.568185        -1.369060
 O         3.381480        -0.519936        -1.820035
 C         2.844035        -0.776643        -0.476130
 O         3.041559         1.204361         1.046857
 C         1.717967         0.447058         1.222713
 H        -0.587212         0.024694         0.406143
 H        -0.616649        -0.631676        -1.187854
 H        -0.142469        -1.584999         0.316774
 H         1.798481         0.796742        -2.067096
 H         1.355071         2.043563        -0.669959
 H         4.188552         1.395661        -2.233836
 H         5.174661         0.246387        -0.914162
 H         3.256119        -1.729930         0.003749
 H         1.980987        -0.278713         2.089719
 H         0.882877         1.121650         1.526672
