19
Iteration:  3736
 C        -0.001204        -0.790870        -0.323193
 C         1.351806        -0.152256        -0.113158
 C         1.766897         1.119688        -0.920172
 C         3.173398         0.742865        -0.324751
 C         4.226428         0.566218        -1.283409
 O         3.302258        -0.552356        -1.898882
 C         2.715682        -0.704815        -0.435726
 O         3.134003         1.170242         1.023018
 C         1.790127         0.597337         1.281864
 H        -0.908216        -0.138038        -0.134755
 H        -0.181127        -1.194847        -1.387069
 H        -0.155860        -1.572788         0.474102
 H         1.529100         0.910396        -2.060923
 H         1.281101         2.066457        -0.558879
 H         4.597590         1.337937        -1.908355
 H         5.100328         0.050958        -0.803109
 H         3.150975        -1.590104         0.002682
 H         1.989032        -0.200448         2.037144
 H         1.095326         1.331188         1.604389
