19
Iteration:  4206charge 0 multiplicity 1
 C        -0.008335        -0.821313        -0.310879
 C         1.284421         0.026508        -0.143545
 C         1.644894         1.335123        -0.855494
 C         3.124434         0.854293        -0.355551
 C         4.234383         0.465185        -1.379468
 O         3.524328        -0.737354        -1.752966
 C         2.647301        -0.579547        -0.520143
 O         3.107345         1.141605         1.004691
 C         1.818905         0.377832         1.261269
 H        -0.801450        -0.118509        -0.159006
 H        -0.199999        -1.340330        -1.251044
 H        -0.226267        -1.573605         0.459950
 H         1.608857         1.358843        -1.922006
 H         1.457782         2.320126        -0.309300
 H         4.472653         1.159241        -2.267754
 H         5.110350         0.194330        -0.925581
 H         2.910425        -1.412016         0.216827
 H         2.192554        -0.483977         1.755661
 H         1.173810         0.952205         1.849886
