19
Iteration:  3902
 C        -0.007543        -0.783573        -0.267783
 C         1.297281         0.021287        -0.108983
 C         1.622499         1.278956        -0.957043
 C         3.119145         0.858757        -0.393179
 C         4.241085         0.483160        -1.364664
 O         3.512516        -0.636815        -1.823891
 C         2.729383        -0.649307        -0.531758
 O         3.112198         1.028605         1.073800
 C         1.732869         0.459735         1.362986
 H        -0.930470        -0.150586        -0.286145
 H         0.077683        -1.444923        -1.200594
 H         0.017262        -1.442506         0.701786
 H         1.605091         0.957447        -1.954812
 H         1.428541         2.391387        -0.868031
 H         4.400220         1.133160        -2.163323
 H         5.295416         0.296814        -1.085584
 H         3.065383        -1.477969         0.091736
 H         1.754640        -0.446305         1.970443
 H         1.229879         1.307309         1.753986
