19
Iteration:  3414charge 0 multiplicity 1
 C         0.048004        -0.708281        -0.346016
 C         1.398404        -0.016933        -0.138598
 C         1.788574         1.196683        -0.928623
 C         3.158270         0.821905        -0.323203
 C         4.261249         0.456440        -1.442411
 O         3.264608        -0.692061        -1.774080
 C         2.783117        -0.667514        -0.419376
 O         3.025506         1.241957         1.022124
 C         1.735070         0.420189         1.394624
 H        -0.820637        -0.355974         0.222182
 H        -0.271000        -0.731046        -1.366926
 H         0.051583        -1.766015        -0.139764
 H         1.917293         1.015010        -2.039590
 H         1.210929         2.090901        -0.842323
 H         4.471673         1.144813        -2.417804
 H         5.228794         0.021917        -1.112017
 H         3.189917        -1.543248         0.148474
 H         2.067263        -0.419194         2.038626
 H         0.990171         1.141319         1.821130
