19
Iteration:  2718
 C        -0.039915        -0.653780        -0.193115
 C         1.357663        -0.084967        -0.101957
 C         1.744835         1.051756        -0.986740
 C         3.177830         0.798037        -0.365461
 C         4.326787         0.567936        -1.317451
 O         3.395381        -0.537896        -1.849856
 C         2.712303        -0.734612        -0.449606
 O         3.017512         1.122521         1.012149
 C         1.745519         0.441575         1.244927
 H        -0.666340        -0.146094         0.475270
 H        -0.302035        -0.507052        -1.238063
 H        -0.117593        -1.734093         0.141244
 H         1.666205         0.933242        -2.055308
 H         1.372711         2.102774        -0.637923
 H         4.424190         1.284988        -2.122534
 H         5.369011         0.439060        -0.853603
 H         3.111103        -1.666389         0.004383
 H         1.985502        -0.358544         1.869689
 H         1.003921         1.088072         1.682427
