19
Iteration:  4007charge 0 multiplicity 1
 C         0.035906        -0.813187        -0.300097
 C         1.329523        -0.033545        -0.179632
 C         1.615639         1.343635        -0.884882
 C         3.174761         0.823023        -0.342215
 C         4.249177         0.517912        -1.325467
 O         3.436629        -0.677614        -1.749963
 C         2.648686        -0.695499        -0.571541
 O         3.162281         1.083170         1.011895
 C         1.797300         0.472165         1.309348
 H        -0.779494        -0.226870         0.080605
 H        -0.280452        -1.106003        -1.305484
 H         0.000724        -1.710415         0.197504
 H         1.330281         1.361534        -2.036148
 H         1.264401         2.320884        -0.577047
 H         4.365130         1.109127        -2.294026
 H         5.140027         0.255919        -0.808140
 H         3.004841        -1.484596         0.192339
 H         1.905608        -0.176299         2.185346
 H         1.016647         1.211585         1.539533
