19
Iteration:  2435charge 0 multiplicity 1
 C         0.031792        -0.744540        -0.226544
 C         1.371573        -0.019990        -0.174894
 C         1.768170         1.238459        -0.916644
 C         3.128144         0.780931        -0.353245
 C         4.264015         0.476557        -1.327605
 O         3.372950        -0.605558        -1.814306
 C         2.699396        -0.652075        -0.534674
 O         3.031442         1.162992         0.992009
 C         1.800517         0.404462         1.301193
 H        -0.751627        -0.041556        -0.080198
 H        -0.088250        -1.340794        -1.163442
 H        -0.312091        -1.444974         0.573251
 H         1.511587         1.058913        -1.965474
 H         1.304946         2.132335        -0.677404
 H         4.440144         1.183799        -2.203613
 H         5.122610         0.049607        -0.803619
 H         3.149351        -1.373937         0.195589
 H         2.089847        -0.457295         1.971880
 H         1.055317         0.935402         1.924829
