19
Iteration:  3288
 C        -0.017851        -0.736644        -0.260116
 C         1.257171        -0.009023        -0.094176
 C         1.759732         1.202000        -1.002755
 C         3.153460         0.783806        -0.396968
 C         4.213108         0.519339        -1.391361
 O         3.513647        -0.698578        -1.789143
 C         2.637708        -0.644302        -0.416337
 O         3.113555         1.137814         0.968638
 C         1.747164         0.456058         1.350829
 H        -0.967776        -0.221964        -0.024786
 H        -0.149806        -0.826387        -1.382510
 H         0.099614        -1.682588         0.374334
 H         1.508758         1.231381        -2.008093
 H         1.476250         2.082189        -0.447328
 H         4.277829         1.251089        -2.134933
 H         5.277930         0.381016        -0.965110
 H         3.043743        -1.479014         0.164358
 H         1.999773        -0.342409         2.024885
 H         1.149890         1.142577         1.886038
