19
Iteration:  4423charge 0 multiplicity 1
 C        -0.011335        -0.697906        -0.166174
 C         1.296506         0.002990        -0.107854
 C         1.712091         1.266268        -0.948432
 C         3.166523         0.819232        -0.378732
 C         4.321675         0.524569        -1.329561
 O         3.455180        -0.711216        -1.886878
 C         2.787235        -0.648789        -0.554813
 O         2.908682         1.213443         1.019454
 C         1.801658         0.307763         1.308280
 H        -0.875777        -0.044539        -0.266492
 H         0.006046        -1.484043        -0.925713
 H        -0.262179        -1.316896         0.713354
 H         1.788739         1.073692        -2.028082
 H         1.383420         2.221246        -0.759916
 H         4.675406         1.217516        -2.207763
 H         5.121093         0.172267        -0.687781
 H         2.924341        -1.494324         0.027687
 H         2.139051        -0.589500         1.900541
 H         1.136993         0.746101         2.065402
