19
Iteration:   225charge 0 multiplicity 1
 C        -0.114180        -0.744435        -0.201772
 C         1.245138        -0.047518        -0.061655
 C         1.684947         1.447941        -0.428492
 C         3.177702         0.784816        -0.289656
 C         4.100835         0.866628        -1.441885
 O         3.255878        -0.129112        -2.162672
 C         2.668894        -0.522546        -0.863108
 O         3.312122         0.507529         1.065022
 C         2.057151        -0.123836         1.373695
 H        -0.730620        -0.717533         0.712652
 H        -0.673808        -0.294323        -1.043452
 H        -0.022468        -1.770368        -0.661082
 H         1.456659         1.864759        -1.433345
 H         1.593719         2.238532         0.446904
 H         4.175426         1.901398        -1.895019
 H         5.144058         0.500796        -1.213209
 H         3.145071        -1.414249        -0.400805
 H         2.172264        -1.186447         1.573604
 H         1.561549         0.308451         2.248667
