19
Iteration:  3025
 C        -0.101496        -0.648170        -0.187403
 C         1.327943        -0.107319        -0.073409
 C         1.766665         1.062918        -0.975668
 C         3.176083         0.721996        -0.378113
 C         4.262049         0.661606        -1.404659
 O         3.435840        -0.543824        -1.896113
 C         2.893097        -0.747057        -0.426189
 O         2.992293         1.088688         1.020143
 C         1.715262         0.478419         1.317314
 H        -0.873485        -0.081523         0.255376
 H        -0.403858        -0.772009        -1.238525
 H        -0.428830        -1.531729         0.433763
 H         1.695088         0.878992        -2.096602
 H         1.623193         2.106155        -0.545282
 H         4.475534         1.349873        -2.135637
 H         5.196438         0.223726        -0.995079
 H         3.207548        -1.737231        -0.032919
 H         1.804812        -0.236670         2.231820
 H         1.134577         1.433211         1.504192
