19
Iteration:  4360charge 0 multiplicity 1
 C         0.024252        -0.709757        -0.304542
 C         1.304480        -0.159414        -0.028017
 C         1.753447         1.089994        -0.954315
 C         3.144031         0.773499        -0.306484
 C         4.242239         0.519986        -1.407540
 O         3.427039        -0.588760        -1.913245
 C         2.742530        -0.638432        -0.464013
 O         3.038093         1.113066         1.054546
 C         1.743635         0.540364         1.370402
 H        -0.745655        -0.059496         0.054161
 H        -0.116907        -0.682157        -1.357496
 H         0.011639        -1.716210         0.219920
 H         1.605933         0.860005        -2.129589
 H         1.317466         2.123741        -0.837575
 H         4.397325         1.372344        -2.170559
 H         5.169251         0.193359        -1.007807
 H         3.220281        -1.512907         0.109534
 H         1.878984         0.055153         2.327089
 H         1.118156         1.398610         1.498677
