19
Iteration:   150
 C        -0.064953        -0.693847        -0.282104
 C         1.304947        -0.054058        -0.067708
 C         1.645765         1.384127        -0.358039
 C         3.183569         0.753520        -0.240333
 C         4.084001         0.828335        -1.445775
 O         3.137485        -0.014394        -2.204304
 C         2.639754        -0.514212        -0.930661
 O         3.368134         0.581383         1.200660
 C         2.123458        -0.205102         1.323194
 H        -0.500290        -0.347520        -1.224100
 H        -0.027966        -1.804803        -0.406925
 H        -0.843331        -0.540777         0.631479
 H         1.430277         1.728382        -1.368993
 H         1.301543         2.085066         0.440370
 H         4.209381         1.778140        -2.011203
 H         5.031922         0.165156        -1.195881
 H         3.098627        -1.486648        -0.535578
 H         2.424556        -1.273262         1.376079
 H         1.542761         0.067823         2.192691
