19
Iteration:  1452charge 0 multiplicity 1
 C        -0.052159        -0.722310        -0.249170
 C         1.301216        -0.072985        -0.251943
 C         1.755600         1.247307        -0.885592
 C         3.211395         0.751569        -0.283745
 C         4.134448         0.602098        -1.464158
 O         3.484287        -0.588768        -1.743018
 C         2.673116        -0.676854        -0.499503
 O         3.138543         1.023513         1.066564
 C         1.790836         0.452038         1.286282
 H        -0.641649        -0.598514        -1.140841
 H         0.069492        -1.855516        -0.211108
 H        -0.517155        -0.442418         0.675643
 H         1.788985         1.091687        -1.970873
 H         1.277631         2.099993        -0.420225
 H         4.085690         1.474409        -2.290542
 H         5.164416         0.421075        -1.259304
 H         2.932408        -1.625512        -0.110306
 H         1.842001        -0.258730         2.123991
 H         1.021610         1.185941         1.435666
