19
Iteration:  4864charge 0 multiplicity 1
 C        -0.109555        -0.762579        -0.089886
 C         1.368234        -0.009320        -0.061941
 C         1.814828         1.147823        -1.053994
 C         3.190812         0.774111        -0.313386
 C         4.378966         0.506881        -1.324016
 O         3.431645        -0.588764        -1.896597
 C         2.701793        -0.656026        -0.548549
 O         2.945189         1.175239         1.019135
 C         1.759003         0.412615         1.257200
 H        -0.873010        -0.155772         0.510206
 H        -0.468989        -0.713038        -1.161060
 H        -0.120418        -1.737380         0.405894
 H         1.674607         1.099669        -2.060494
 H         1.616557         2.161259        -0.752623
 H         4.571941         1.248234        -2.162473
 H         5.272399        -0.049844        -0.962608
 H         3.178930        -1.447312         0.053895
 H         1.746406        -0.400247         2.015869
 H         0.878557         1.072659         1.595005
