19
Iteration:  3686charge 0 multiplicity 1
 C         0.021392        -0.747233        -0.226743
 C         1.299349        -0.046137        -0.262732
 C         1.781377         1.333199        -0.988927
 C         3.124337         0.825428        -0.303545
 C         4.162143         0.549351        -1.415759
 O         3.399281        -0.713393        -1.710224
 C         2.802172        -0.625991        -0.478372
 O         3.080663         1.122672         1.096174
 C         1.779512         0.335613         1.235997
 H        -0.905919        -0.168908        -0.329935
 H        -0.054539        -1.282804        -1.146259
 H        -0.107482        -1.309117         0.707651
 H         1.789435         1.198131        -2.016596
 H         1.295627         2.222612        -0.542635
 H         3.974751         1.237970        -2.304618
 H         5.235801         0.232143        -1.324788
 H         3.259154        -1.279206         0.315016
 H         1.950118        -0.546123         1.892858
 H         0.997689         1.075196         1.690148
