19
Iteration:   441charge 0 multiplicity 1
 C        -0.027617        -0.787922        -0.169489
 C         1.275035        -0.005677        -0.168121
 C         1.758172         1.409081        -0.508538
 C         3.189057         0.723547        -0.258343
 C         4.087141         0.794663        -1.511647
 O         3.291437        -0.239027        -2.077612
 C         2.680935        -0.557289        -0.733411
 O         3.302318         0.703817         1.149962
 C         1.829659        -0.007794         1.247343
 H        -0.548983        -0.613675         0.838366
 H        -0.780931        -0.660513        -0.972853
 H         0.253416        -1.827113        -0.194799
 H         1.732426         1.740583        -1.508276
 H         1.460724         2.185937         0.117899
 H         4.131124         1.792407        -2.148522
 H         5.175685         0.445161        -1.358320
 H         3.143277        -1.487113        -0.453785
 H         2.045561        -0.981559         1.671664
 H         1.135631         0.567393         1.901196
