19
Iteration:  1212charge 0 multiplicity 1
 C        -0.024049        -0.710857        -0.235230
 C         1.372589        -0.093497        -0.132947
 C         1.731627         1.155197        -0.921386
 C         3.177601         0.724371        -0.304726
 C         4.231432         0.572472        -1.398240
 O         3.374260        -0.470571        -1.923769
 C         2.739708        -0.767521        -0.481085
 O         3.092515         1.068557         1.140053
 C         1.743920         0.488261         1.252185
 H        -0.519504        -0.529639        -1.186881
 H         0.200905        -1.765612         0.034046
 H        -0.652702        -0.210937         0.524675
 H         1.640261         1.031716        -1.974195
 H         1.333850         2.026877        -0.537308
 H         4.339703         1.378545        -2.196801
 H         5.116195         0.232882        -1.023845
 H         3.312620        -1.648226        -0.151602
 H         1.817401        -0.316888         1.986699
 H         1.024617         1.233915         1.553748
