19
Iteration:  1729charge 0 multiplicity 1
 C         0.049753        -0.734116        -0.285902
 C         1.342718        -0.012175        -0.118826
 C         1.702462         1.214153        -0.882088
 C         3.156323         0.778281        -0.314178
 C         4.240012         0.437881        -1.387226
 O         3.390159        -0.644872        -1.920722
 C         2.676835        -0.680966        -0.517787
 O         3.026316         1.260071         1.119858
 C         1.840244         0.389893         1.306512
 H        -0.428899        -0.104603        -1.062091
 H         0.110674        -1.652901        -0.840135
 H        -0.423379        -0.856254         0.700838
 H         1.840637         1.063161        -1.937988
 H         1.295399         2.217272        -0.681083
 H         4.537684         1.228268        -2.236025
 H         5.032352         0.084398        -0.836753
 H         2.848768        -1.521313         0.136393
 H         2.120299        -0.550895         1.928679
 H         1.054996         0.960046         1.867503
