19
Iteration:  3037charge 0 multiplicity 1
 C        -0.090529        -0.699391        -0.164163
 C         1.321334        -0.084795        -0.111186
 C         1.840458         1.131875        -0.935181
 C         3.185304         0.720842        -0.301547
 C         4.269440         0.585944        -1.399362
 O         3.395719        -0.568992        -1.816578
 C         2.832550        -0.726888        -0.544092
 O         3.011954         1.106125         1.026990
 C         1.707759         0.511066         1.245395
 H        -0.639566         0.015311         0.371445
 H        -0.468521        -0.778282        -1.194399
 H        -0.004530        -1.735622         0.200795
 H         1.739230         0.911114        -2.056475
 H         1.304723         2.126872        -0.782132
 H         4.179316         1.375903        -2.094883
 H         5.272702         0.296768        -1.212399
 H         3.401305        -1.462457         0.084583
 H         1.775437        -0.346916         2.007624
 H         0.877377         1.159090         1.662998
