19
Iteration:  3522
 C        -0.000896        -0.682742        -0.274479
 C         1.320958        -0.042205        -0.070652
 C         1.774342         1.135460        -0.952687
 C         3.192574         0.744060        -0.297653
 C         4.282598         0.490163        -1.445005
 O         3.416539        -0.578632        -1.894574
 C         2.740368        -0.724574        -0.413467
 O         2.995056         1.235878         0.992701
 C         1.742176         0.432763         1.393918
 H        -0.847315         0.094067        -0.501252
 H        -0.112070        -1.231210        -1.235180
 H        -0.280879        -1.244028         0.669153
 H         1.751525         0.893158        -2.021261
 H         1.257712         1.952863        -0.525038
 H         4.556303         1.282142        -2.201320
 H         5.195589         0.094861        -1.081553
 H         3.025515        -1.772586        -0.070284
 H         2.051814        -0.407467         2.007106
 H         0.946181         1.014892         1.940374
