19
Iteration:  4113
 C        -0.058445        -0.701685        -0.253083
 C         1.230966        -0.007209        -0.156948
 C         1.662523         1.256573        -0.944456
 C         3.121324         0.819878        -0.412148
 C         4.230913         0.575437        -1.362263
 O         3.508686        -0.695228        -1.751968
 C         2.707535        -0.660551        -0.518963
 O         3.129999         1.114702         1.043744
 C         1.850810         0.354589         1.303116
 H        -0.871302        -0.104980         0.329105
 H        -0.387647        -0.897165        -1.296833
 H         0.037008        -1.671400         0.344882
 H         1.730133         1.017815        -2.092043
 H         1.262023         2.238233        -0.739639
 H         4.543557         1.338799        -2.039650
 H         5.235927         0.227880        -0.848849
 H         2.967907        -1.513979         0.060347
 H         2.063456        -0.585535         1.895941
 H         1.010820         1.015851         1.686401
