19
Iteration:  1310charge 0 multiplicity 1
 C        -0.039674        -0.655324        -0.280190
 C         1.366149        -0.091106        -0.106345
 C         1.704925         1.168049        -0.822110
 C         3.160695         0.757301        -0.326564
 C         4.278234         0.587307        -1.356582
 O         3.378906        -0.542369        -1.896999
 C         2.716509        -0.742990        -0.541293
 O         3.087602         1.176796         1.028040
 C         1.789771         0.320623         1.310462
 H        -0.023785        -1.067372        -1.314739
 H        -0.247357        -1.514668         0.485434
 H        -0.716331         0.250876        -0.109553
 H         1.579525         0.869787        -1.829460
 H         1.262728         2.043665        -0.543951
 H         4.213347         1.469531        -2.117010
 H         5.250669         0.241782        -1.071400
 H         3.061362        -1.648448        -0.026611
 H         2.137208        -0.458036         1.981257
 H         1.055138         0.959816         1.750266
