19
Iteration:  2309charge 0 multiplicity 1
 C         0.067489        -0.776307        -0.349164
 C         1.393669        -0.098274        -0.032343
 C         1.727322         1.234154        -0.976861
 C         3.193712         0.850524        -0.372922
 C         4.249058         0.424550        -1.293485
 O         3.271833        -0.564137        -1.810358
 C         2.686549        -0.688227        -0.458506
 O         3.052263         1.216803         0.969963
 C         1.828605         0.422859         1.335604
 H        -0.818269        -0.365630         0.154618
 H        -0.342525        -0.531752        -1.311245
 H         0.088755        -1.847321        -0.278226
 H         1.557395         0.948459        -1.973454
 H         1.245446         2.053596        -0.593884
 H         4.528073         1.095924        -2.038115
 H         5.082363        -0.126597        -0.828644
 H         3.208565        -1.483904         0.035267
 H         2.180050        -0.339440         2.137039
 H         1.079930         1.151179         1.746003
