19
Iteration:  4273charge 0 multiplicity 1
 C        -0.086801        -0.734484        -0.214324
 C         1.287664        -0.165706        -0.151025
 C         1.753999         1.133667        -0.930017
 C         3.138798         0.711864        -0.301601
 C         4.275560         0.631265        -1.323614
 O         3.458655        -0.597934        -1.888131
 C         2.767381        -0.730491        -0.541796
 O         3.086295         1.116150         1.050864
 C         1.725556         0.583850         1.294906
 H        -0.738443         0.083488         0.028108
 H        -0.375072        -1.033116        -1.198916
 H        -0.303052        -1.580635         0.526812
 H         1.640204         0.919993        -2.077954
 H         1.474084         2.115168        -0.490530
 H         4.430602         1.332968        -2.171142
 H         5.208513         0.418111        -0.847435
 H         3.284959        -1.704028        -0.152397
 H         1.879971        -0.086515         2.127309
 H         1.189430         1.500138         1.491737
