19
Iteration:  3470
 C        -0.009477        -0.746758        -0.137495
 C         1.299020         0.010417        -0.169626
 C         1.669893         1.228150        -0.993981
 C         3.107150         0.814930        -0.403192
 C         4.311658         0.487572        -1.349590
 O         3.520563        -0.668588        -1.773553
 C         2.673503        -0.576061        -0.535923
 O         3.106007         1.015344         1.057993
 C         1.771736         0.497798         1.223288
 H        -0.797986        -0.177256         0.318855
 H        -0.398769        -0.970835        -1.093827
 H        -0.012833        -1.718400         0.381160
 H         1.500283         0.947643        -1.998398
 H         1.360846         2.217773        -0.540799
 H         4.374107         1.253516        -2.254224
 H         5.186777         0.186962        -0.728162
 H         3.152928        -1.290360         0.155965
 H         1.579321        -0.322888         1.960517
 H         0.911792         1.152090         1.474468
