19
Iteration:     8charge 0 multiplicity 1
 C         0.006948        -0.724460        -0.225805
 C         1.351683        -0.107861        -0.061745
 C         1.736091         1.403191        -0.301888
 C         3.158139         0.745255        -0.244113
 C         4.029795         0.940488        -1.451763
 O         3.091137         0.108150        -2.180048
 C         2.589712        -0.486354        -0.888130
 O         3.341516         0.439375         1.110362
 C         2.059033        -0.320318         1.259755
 H        -0.618586        -0.264602         0.546003
 H        -0.499253        -0.321853        -1.126528
 H        -0.021981        -1.903672        -0.360708
 H         1.637941         1.991268        -1.213228
 H         1.765110         2.105019         0.531442
 H         4.151557         2.002122        -1.644149
 H         5.107078         0.587874        -1.441972
 H         3.207554        -1.483748        -0.858356
 H         2.463777        -1.419702         1.306772
 H         1.455427        -0.030389         2.161495
