19
Iteration:  4574charge 0 multiplicity 1
 C        -0.072961        -0.692280        -0.139962
 C         1.300418        -0.155210        -0.241204
 C         1.783384         1.139110        -0.966613
 C         3.125766         0.802117        -0.353992
 C         4.313262         0.535713        -1.318113
 O         3.394320        -0.536122        -1.806100
 C         2.741065        -0.709507        -0.521654
 O         3.074406         1.161902         1.023141
 C         1.791259         0.431555         1.279780
 H        -0.819131         0.120505        -0.026221
 H        -0.433529        -1.235464        -1.042257
 H        -0.154398        -1.345108         0.734134
 H         1.668529         1.095185        -2.082301
 H         1.381790         2.121584        -0.667690
 H         4.584157         1.137830        -2.155894
 H         5.197703         0.249771        -0.684163
 H         3.079777        -1.675112        -0.044167
 H         2.069831        -0.351126         2.001859
 H         0.896039         1.075101         1.463775
