19
Iteration:  3853charge 0 multiplicity 1
 C         0.036296        -0.749314        -0.285603
 C         1.373026        -0.124468        -0.094532
 C         1.795024         1.143929        -0.908495
 C         3.197053         0.734486        -0.307493
 C         4.273469         0.467661        -1.388800
 O         3.308077        -0.583843        -1.920728
 C         2.743541        -0.653995        -0.503708
 O         2.985098         1.276154         1.071816
 C         1.742091         0.467805         1.349696
 H        -0.779213        -0.002065        -0.238121
 H         0.097833        -1.146568        -1.296889
 H        -0.115006        -1.507980         0.429932
 H         1.671021         1.133052        -2.052547
 H         1.271778         1.965949        -0.440165
 H         4.700670         1.181662        -2.285973
 H         5.229346         0.077547        -0.962339
 H         3.118301        -1.561910         0.105717
 H         1.996732        -0.408553         2.041238
 H         0.941155         1.185228         1.779552
