19
Iteration:    80
 C         0.008179        -0.635630        -0.198483
 C         1.387595        -0.200868        -0.118135
 C         1.818596         1.218992        -0.423306
 C         3.194625         0.626058        -0.219079
 C         4.054286         0.975248        -1.412309
 O         3.073541         0.178663        -2.169479
 C         2.599377        -0.579139        -0.986354
 O         3.292887         0.502451         1.177119
 C         2.029701        -0.150605         1.354029
 H        -0.016436        -1.787434        -0.270228
 H        -0.500127        -0.384724         0.757343
 H        -0.546353        -0.207478        -0.954946
 H         1.649194         1.443179        -1.514578
 H         1.556613         2.043758         0.311489
 H         3.995585         2.082394        -1.746392
 H         5.004354         0.505066        -1.499899
 H         2.978861        -1.542458        -1.123579
 H         2.243724        -1.111264         1.736214
 H         1.416421         0.434922         2.049755
