19
Iteration:   130charge 0 multiplicity 1
 C         0.075667        -0.681707        -0.252264
 C         1.384084        -0.057831        -0.115242
 C         1.629321         1.476900        -0.341382
 C         3.092064         0.886817        -0.263384
 C         4.054659         0.885085        -1.414017
 O         3.150635        -0.087262        -2.142042
 C         2.612684        -0.446801        -0.816747
 O         3.344377         0.447541         1.054845
 C         2.077471        -0.322857         1.270056
 H        -0.147052        -0.902498        -1.277071
 H        -0.071598        -1.573196         0.393598
 H        -0.708735         0.077032         0.174697
 H         1.342954         1.757436        -1.320894
 H         1.378446         2.117752         0.456115
 H         4.158541         1.752329        -2.003202
 H         4.972248         0.273698        -1.134590
 H         2.974345        -1.514464        -0.531268
 H         2.307395        -1.400507         1.582041
 H         1.517172         0.195291         2.069151
