19
Iteration:  3236
 C         0.016706        -0.774616        -0.259302
 C         1.362483        -0.087305        -0.172535
 C         1.787233         1.217408        -0.922806
 C         3.196983         0.774466        -0.381580
 C         4.232514         0.433924        -1.392625
 O         3.292191        -0.589006        -1.818924
 C         2.814316        -0.705026        -0.362003
 O         3.028943         1.173702         1.049910
 C         1.742195         0.539176         1.210458
 H        -0.636085        -0.246031         0.431201
 H        -0.354283        -0.597800        -1.294837
 H         0.160497        -1.778683         0.090896
 H         1.761087         0.972974        -1.971804
 H         1.497134         2.259764        -0.579899
 H         4.302889         1.377268        -2.056857
 H         5.193451        -0.045689        -0.990750
 H         3.121088        -1.585102         0.270971
 H         1.914906        -0.199451         2.053313
 H         0.824316         1.133628         1.545533
