19
Iteration:  1876charge 0 multiplicity 1
 C        -0.067412        -0.859238        -0.313782
 C         1.312748        -0.013887        -0.167786
 C         1.746012         1.239317        -0.925520
 C         3.158731         0.835881        -0.369866
 C         4.298517         0.448025        -1.365459
 O         3.382550        -0.663397        -1.782305
 C         2.665676        -0.595561        -0.447078
 O         3.142581         1.157328         1.069271
 C         1.783205         0.500842         1.255745
 H        -0.596262        -0.848617         0.664682
 H        -0.730903        -0.390108        -1.137399
 H         0.142648        -1.971333        -0.530292
 H         1.685801         1.248454        -1.989081
 H         1.350717         2.074287        -0.498377
 H         4.449879         1.183553        -2.151381
 H         5.320612         0.280009        -0.888247
 H         2.940621        -1.533036         0.052559
 H         1.994787        -0.338113         1.952892
 H         1.027000         1.151520         1.769592
