19
Iteration:  3486charge 0 multiplicity 1
 C        -0.047121        -0.712098        -0.118624
 C         1.281567        -0.028714        -0.270874
 C         1.722501         1.263865        -0.991174
 C         3.137692         0.839252        -0.367398
 C         4.256131         0.572615        -1.388457
 O         3.516741        -0.683511        -1.760872
 C         2.737844        -0.644539        -0.458768
 O         3.142262         1.007422         1.037556
 C         1.632693         0.425525         1.215638
 H        -0.817927         0.017468         0.269089
 H        -0.375287        -1.431806        -0.940782
 H         0.009656        -1.493772         0.726873
 H         1.800021         1.415853        -2.121067
 H         1.162745         2.172252        -0.727842
 H         4.381413         1.149855        -2.227850
 H         5.252757         0.235877        -0.952333
 H         3.030740        -1.448081         0.232994
 H         1.861666        -0.314979         2.012218
 H         1.253411         1.339861         1.683921
