19
Iteration:  2270
 C        -0.029250        -0.769607        -0.133099
 C         1.325569        -0.040714        -0.153855
 C         1.781061         1.293293        -0.962256
 C         3.132178         0.758135        -0.320270
 C         4.282927         0.545251        -1.400947
 O         3.462181        -0.636042        -1.789205
 C         2.705131        -0.643782        -0.501754
 O         3.062396         1.089834         1.005864
 C         1.723822         0.413078         1.211760
 H        -0.743510        -0.108291         0.354294
 H        -0.210403        -1.126936        -1.168139
 H         0.025618        -1.643200         0.579513
 H         1.599066         1.246000        -2.078341
 H         1.262228         2.289181        -0.619620
 H         4.361910         1.459452        -2.125769
 H         5.264312         0.155666        -1.081360
 H         2.929201        -1.549683         0.130217
 H         1.768487        -0.387832         1.894182
 H         1.051274         1.156091         1.602225
