19
Iteration:  4341
 C        -0.005338        -0.834520        -0.306591
 C         1.360967        -0.014040        -0.095832
 C         1.770448         1.193183        -0.880376
 C         3.208614         0.753361        -0.391586
 C         4.284299         0.455688        -1.385833
 O         3.321850        -0.612100        -1.857071
 C         2.765528        -0.675246        -0.498709
 O         3.017516         1.286065         1.063799
 C         1.744019         0.466239         1.348056
 H        -0.939655        -0.425819         0.137277
 H        -0.176677        -0.719099        -1.387498
 H         0.174230        -1.887761        -0.003896
 H         1.626348         1.064714        -2.015765
 H         1.484851         2.211688        -0.512428
 H         4.500756         1.117082        -2.171910
 H         5.199058         0.078504        -0.864466
 H         3.029323        -1.526640         0.242392
 H         1.935276        -0.521777         1.830758
 H         0.946778         1.118842         1.799947
