19
Iteration:  2188charge 0 multiplicity 1
 C         0.067453        -0.767461        -0.308127
 C         1.360420        -0.045712        -0.101228
 C         1.756019         1.239413        -0.953567
 C         3.143389         0.826127        -0.306425
 C         4.202647         0.441196        -1.329870
 O         3.312821        -0.651934        -1.835206
 C         2.683042        -0.681715        -0.554273
 O         3.071385         1.263210         1.078699
 C         1.862109         0.412459         1.294324
 H        -0.814322         0.043109        -0.366474
 H        -0.040067        -1.282758        -1.302148
 H        -0.146342        -1.535275         0.513046
 H         1.619611         1.160671        -2.030828
 H         1.252305         2.046633        -0.561180
 H         4.335187         1.168047        -2.131809
 H         5.299697         0.147737        -0.842761
 H         3.032600        -1.494171         0.108082
 H         2.112635        -0.618913         1.761269
 H         1.054238         0.920740         1.899112
