19
Iteration:  2916charge 0 multiplicity 1
 C        -0.103027        -0.823542        -0.277322
 C         1.407181        -0.129300        -0.043169
 C         1.809550         1.121439        -0.941649
 C         3.160410         0.779378        -0.373615
 C         4.270372         0.588223        -1.347555
 O         3.308009        -0.548172        -1.842285
 C         2.754987        -0.702077        -0.507107
 O         3.101326         1.105315         1.056213
 C         1.749313         0.580511         1.312129
 H        -0.976243        -0.301553         0.028179
 H        -0.162034        -0.788358        -1.380063
 H         0.050040        -1.915944        -0.096793
 H         1.741994         1.062140        -2.114507
 H         1.245111         2.103350        -0.644442
 H         4.432184         1.373148        -2.062334
 H         5.154817         0.079773        -1.026233
 H         3.220024        -1.544220         0.073627
 H         1.914351         0.046116         2.287082
 H         0.999726         1.415920         1.487332
