19
Iteration:  3048charge 0 multiplicity 1
 C         0.003030        -0.709874        -0.168932
 C         1.350414        -0.082640        -0.231061
 C         1.798454         1.180854        -0.976056
 C         3.172070         0.784586        -0.273244
 C         4.195304         0.526300        -1.405162
 O         3.443684        -0.631475        -1.842969
 C         2.674391        -0.647272        -0.500161
 O         3.084893         1.168819         1.106829
 C         1.691675         0.410714         1.237577
 H        -0.731703        -0.352635         0.492175
 H        -0.460776        -0.788958        -1.162115
 H         0.063455        -1.736413         0.247882
 H         1.928574         0.983656        -2.082100
 H         1.384494         2.150307        -0.584441
 H         4.234155         1.282708        -2.143932
 H         5.199320         0.290569        -1.130372
 H         3.058893        -1.470471         0.154544
 H         1.999924        -0.312432         2.041425
 H         0.998530         1.225914         1.579573
