19
Iteration:  1707charge 0 multiplicity 1
 C        -0.074809        -0.732109        -0.301099
 C         1.344467        -0.104310        -0.115226
 C         1.823297         1.195999        -0.918093
 C         3.200862         0.797873        -0.346869
 C         4.225763         0.510080        -1.421279
 O         3.305850        -0.570765        -1.789946
 C         2.834385        -0.687669        -0.480462
 O         3.048312         1.128984         1.031790
 C         1.766078         0.430283         1.333812
 H        -0.456325        -0.226295        -1.213653
 H        -0.046001        -1.733441        -0.651817
 H        -0.657360        -0.654653         0.646491
 H         1.643866         1.185748        -1.989553
 H         1.412186         2.126247        -0.486888
 H         4.378730         1.424769        -2.149092
 H         5.091924         0.029866        -1.150547
 H         3.397508        -1.428999         0.109308
 H         1.853874        -0.355737         2.165164
 H         1.028251         1.199211         1.674481
