19
Iteration:  4652
 C         0.097326        -0.683964        -0.424866
 C         1.354757        -0.097969        -0.071058
 C         1.744524         1.133177        -0.883531
 C         3.109252         0.845818        -0.369530
 C         4.211224         0.447365        -1.345498
 O         3.272757        -0.620394        -1.756461
 C         2.693549        -0.700917        -0.492224
 O         3.107893         1.263574         0.975093
 C         1.849416         0.440077         1.359975
 H        -0.721998        -0.144705         0.012108
 H        -0.057194        -0.938305        -1.468249
 H        -0.088874        -1.711739         0.019654
 H         1.576528         0.986525        -2.030464
 H         1.360162         2.040234        -0.515450
 H         4.631467         1.132520        -2.145316
 H         4.964992        -0.045382        -0.752825
 H         3.271610        -1.451319         0.100817
 H         2.007116        -0.443409         2.061014
 H         0.997298         1.110186         1.773164
