19
Iteration:  1076charge 0 multiplicity 1
 C        -0.004572        -0.763267        -0.293453
 C         1.324436        -0.067476        -0.211158
 C         1.741385         1.344820        -0.863645
 C         3.125114         0.782291        -0.313394
 C         4.174911         0.549988        -1.401533
 O         3.367282        -0.609290        -1.911128
 C         2.713172        -0.665356        -0.581756
 O         3.108100         1.089382         1.122420
 C         1.875240         0.357581         1.399027
 H        -0.101044        -1.867476        -0.590816
 H        -0.460979        -0.784633         0.845164
 H        -0.714337        -0.334566        -1.041311
 H         1.618051         1.399056        -1.940462
 H         1.505729         2.321004        -0.441457
 H         4.388025         1.453513        -1.991705
 H         5.119336         0.094365        -1.003858
 H         3.244348        -1.421352        -0.003424
 H         2.111944        -0.537699         1.956598
 H         1.041418         0.954237         1.849109
