19
Iteration:  1365
 C        -0.018263        -0.790480        -0.182079
 C         1.311171        -0.016485        -0.163298
 C         1.778235         1.304273        -0.891753
 C         3.147226         0.783483        -0.349339
 C         4.217211         0.567606        -1.404315
 O         3.453415        -0.594846        -1.881445
 C         2.654574        -0.649277        -0.634751
 O         3.079452         1.015511         1.129319
 C         1.787084         0.420741         1.330004
 H         0.060173        -1.592532        -0.976514
 H        -0.273787        -1.305026         0.835732
 H        -0.899220        -0.081426        -0.429959
 H         1.726632         1.315594        -1.966009
 H         1.342510         2.155205        -0.451510
 H         4.443562         1.361561        -2.236008
 H         5.189922         0.301075        -1.076844
 H         3.041002        -1.524212        -0.097110
 H         2.019243        -0.411245         1.985639
 H         1.053268         1.032217         1.822677
