19
Iteration:  4702charge 0 multiplicity 1
 C        -0.008380        -0.727121        -0.116614
 C         1.338687        -0.062992        -0.256007
 C         1.732440         1.259953        -0.971095
 C         3.166400         0.787042        -0.309048
 C         4.270286         0.619128        -1.299828
 O         3.447944        -0.729554        -1.787762
 C         2.683679        -0.667985        -0.525377
 O         3.077012         1.085719         0.986835
 C         1.748870         0.467544         1.209847
 H        -0.729415        -0.154180         0.545165
 H        -0.587979        -1.042328        -1.023498
 H         0.087445        -1.650480         0.427054
 H         1.795060         1.173570        -2.073912
 H         1.419423         2.301905        -0.622267
 H         4.224391         1.285724        -2.105342
 H         5.342907         0.373704        -0.979414
 H         2.907985        -1.516419         0.152088
 H         1.588637        -0.416874         1.953119
 H         1.128065         1.256593         1.585098
