19
Iteration:  2514
 C        -0.046560        -0.749557        -0.276339
 C         1.322622        -0.069259        -0.124991
 C         1.749974         1.126285        -0.949764
 C         3.183176         0.839273        -0.311807
 C         4.326354         0.435884        -1.354747
 O         3.354907        -0.560414        -1.795808
 C         2.742195        -0.635839        -0.463159
 O         3.017504         1.224825         0.968540
 C         1.799333         0.393978         1.328243
 H        -0.793003        -0.235814         0.382119
 H        -0.477969        -0.525901        -1.221384
 H        -0.008357        -1.789236        -0.046833
 H         1.739317         1.010153        -1.980328
 H         1.234401         2.040371        -0.648361
 H         4.734961         1.132511        -2.199228
 H         5.223855        -0.066273        -1.049381
 H         2.958252        -1.585093         0.054662
 H         2.183709        -0.365728         1.937878
 H         1.073599         1.092888         1.670104
