19
Iteration:  1025charge 0 multiplicity 1
 C        -0.066028        -0.665162        -0.223832
 C         1.358191        -0.137393        -0.121991
 C         1.760760         1.220782        -0.862993
 C         3.119927         0.876068        -0.312731
 C         4.224239         0.625975        -1.349742
 O         3.420742        -0.561535        -1.952028
 C         2.682259        -0.714410        -0.610327
 O         3.088673         1.038962         1.069044
 C         1.863151         0.331341         1.372390
 H        -0.170924        -1.701626         0.055784
 H        -0.707143        -0.120930         0.383607
 H        -0.385631        -0.637070        -1.282569
 H         1.760096         1.265486        -1.963525
 H         1.278464         2.080112        -0.398840
 H         4.240992         1.387140        -2.298826
 H         5.143355         0.347144        -0.878575
 H         3.041961        -1.697882        -0.152814
 H         2.164108        -0.477470         2.098210
 H         0.932622         0.890291         1.704783
