19
Iteration:  3978
 C        -0.056350        -0.748732        -0.269406
 C         1.285768         0.012594        -0.122034
 C         1.706296         1.307478        -0.922873
 C         3.138998         0.827833        -0.405409
 C         4.226076         0.490804        -1.376183
 O         3.490268        -0.686802        -1.771724
 C         2.734327        -0.657285        -0.507216
 O         3.033194         1.164497         0.992633
 C         1.813538         0.341341         1.343350
 H        -0.821210        -0.266185         0.383735
 H        -0.423269        -0.745108        -1.340945
 H        -0.001163        -1.899361        -0.071998
 H         1.568297         1.203536        -1.943473
 H         1.322680         2.326587        -0.790255
 H         4.740676         1.019836        -2.216004
 H         5.158152         0.145675        -0.714146
 H         3.345955        -1.258653         0.181919
 H         2.209853        -0.545109         2.000049
 H         1.093237         0.910823         1.923109
