19
Iteration:  1250
 C         0.026242        -0.859788        -0.215965
 C         1.297432         0.051425        -0.178060
 C         1.788153         1.289827        -0.906984
 C         3.157556         0.773171        -0.401426
 C         4.239023         0.500153        -1.396372
 O         3.385606        -0.536215        -1.863484
 C         2.710890        -0.670465        -0.480124
 O         3.091727         1.012460         1.101579
 C         1.762975         0.468431         1.278250
 H        -0.634097        -0.602615        -1.065529
 H         0.287035        -1.909534        -0.290044
 H        -0.704195        -0.780498         0.581219
 H         1.479449         1.332642        -2.000358
 H         1.516436         2.340752        -0.367250
 H         4.376668         1.248348        -2.128794
 H         5.330923         0.224537        -1.003064
 H         2.967272        -1.498363         0.193543
 H         1.644761        -0.425048         1.958312
 H         1.068957         1.238394         1.748656
