19
Iteration:  4234charge 0 multiplicity 1
 C        -0.044051        -0.646034        -0.239102
 C         1.362691        -0.048159        -0.105092
 C         1.764120         1.125680        -0.987717
 C         3.174184         0.782231        -0.394873
 C         4.262481         0.596678        -1.442774
 O         3.434913        -0.641222        -1.817613
 C         2.804967        -0.663481        -0.521739
 O         2.943376         1.147357         1.104307
 C         1.756144         0.369633         1.354371
 H        -0.703549         0.282498        -0.177022
 H        -0.313627        -1.359936        -1.062816
 H        -0.382650        -1.265586         0.610284
 H         1.703517         1.020826        -2.079344
 H         1.538869         2.132607        -0.655783
 H         4.443613         1.287056        -2.285197
 H         5.249136         0.090895        -1.025810
 H         3.162769        -1.396231         0.165088
 H         2.117397        -0.592335         1.868430
 H         0.918970         0.925795         1.929304
