19
Iteration:  1711
 C        -0.038055        -0.702268        -0.326296
 C         1.338011        -0.114372        -0.134225
 C         1.839720         1.189431        -0.910604
 C         3.194019         0.832315        -0.343054
 C         4.216231         0.510310        -1.399224
 O         3.306671        -0.605144        -1.825008
 C         2.805980        -0.672453        -0.484745
 O         3.031764         1.150497         1.044085
 C         1.781730         0.429780         1.370415
 H        -0.638501        -0.254945        -1.154722
 H        -0.014248        -1.818527        -0.648215
 H        -0.585560        -0.667716         0.692669
 H         1.553938         1.130113        -1.953295
 H         1.396331         2.049202        -0.479803
 H         4.387305         1.268992        -2.093374
 H         5.228437        -0.024807        -1.155023
 H         3.472992        -1.473041        -0.026529
 H         1.889636        -0.306304         2.130564
 H         0.996333         1.122095         1.747057
