19
Iteration:  2995charge 0 multiplicity 1
 C        -0.062956        -0.703319        -0.228258
 C         1.329507        -0.078824        -0.132659
 C         1.620731         1.159653        -0.924786
 C         3.113324         0.802374        -0.330051
 C         4.232691         0.572287        -1.309591
 O         3.487489        -0.630517        -1.794439
 C         2.765892        -0.674112        -0.600972
 O         3.066674         1.130967         1.009772
 C         1.882899         0.411787         1.278053
 H        -0.712284         0.227444        -0.234988
 H        -0.303253        -1.318648        -1.113724
 H        -0.489044        -1.309620         0.579617
 H         1.693864         0.865434        -2.008305
 H         1.184684         2.157818        -0.563820
 H         4.358417         1.375644        -2.118966
 H         5.200659         0.303812        -0.981312
 H         3.038717        -1.583978        -0.010805
 H         2.056441        -0.374310         2.016233
 H         1.279268         1.190428         1.799450
