19
Iteration:  4421
 C        -0.007326        -0.691725        -0.157695
 C         1.276719        -0.011672        -0.093924
 C         1.732287         1.284111        -0.962745
 C         3.163799         0.838505        -0.380006
 C         4.309391         0.525536        -1.362117
 O         3.478139        -0.705174        -1.876886
 C         2.791238        -0.681549        -0.567784
 O         2.897518         1.194373         1.033118
 C         1.788305         0.321760         1.291753
 H        -0.870977         0.028191        -0.223213
 H         0.059539        -1.518828        -0.895399
 H        -0.226945        -1.288134         0.698798
 H         1.815698         1.081726        -1.950222
 H         1.327872         2.237199        -0.736024
 H         4.612354         1.176786        -2.154349
 H         5.150712         0.176558        -0.700827
 H         2.894078        -1.520464         0.074587
 H         2.172578        -0.584366         1.881967
 H         1.152607         0.790495         2.118571
