19
Iteration:  2460
 C        -0.003647        -0.832101        -0.272956
 C         1.328656         0.011591        -0.167440
 C         1.783923         1.268061        -0.947658
 C         3.148806         0.788658        -0.308892
 C         4.166585         0.522847        -1.516095
 O         3.437076        -0.701549        -1.753476
 C         2.692152        -0.597671        -0.474348
 O         3.130428         1.087151         1.139395
 C         1.758637         0.461842         1.269789
 H        -0.907691        -0.363487         0.180414
 H        -0.105623        -0.930817        -1.326504
 H        -0.095260        -1.761694         0.147155
 H         1.636392         1.268302        -2.008408
 H         1.350098         2.271641        -0.582832
 H         4.210953         1.313018        -2.356726
 H         5.187284         0.211438        -1.152603
 H         3.064640        -1.274611         0.289860
 H         1.774791        -0.226856         2.032689
 H         1.063223         1.260738         1.450396
