19
Iteration:  2523
 C        -0.057850        -0.704582        -0.216483
 C         1.295771        -0.046775        -0.178032
 C         1.736818         1.164793        -0.969713
 C         3.218975         0.766936        -0.367210
 C         4.328072         0.476821        -1.317559
 O         3.367624        -0.568553        -1.790288
 C         2.740262        -0.627891        -0.477121
 O         2.982882         1.230219         0.961088
 C         1.840692         0.360049         1.301803
 H        -0.806331        -0.230761         0.421564
 H        -0.421984        -0.785494        -1.283287
 H         0.128530        -1.787032         0.046914
 H         1.607281         1.028552        -1.991205
 H         1.322641         2.011777        -0.580309
 H         4.765570         1.055286        -2.165644
 H         4.983507        -0.101046        -0.741241
 H         3.189297        -1.474004         0.118503
 H         2.041174        -0.476867         2.054895
 H         1.101193         0.932087         1.904717
