19
Iteration:  3293charge 0 multiplicity 1
 C        -0.027493        -0.701976        -0.251034
 C         1.278848        -0.026246        -0.106249
 C         1.769423         1.164150        -0.956339
 C         3.148880         0.796026        -0.412611
 C         4.218904         0.511657        -1.341171
 O         3.475661        -0.693706        -1.766035
 C         2.709337        -0.644728        -0.480958
 O         3.103020         1.170990         0.956836
 C         1.749165         0.433128         1.340432
 H        -0.970103        -0.199713        -0.002391
 H        -0.201318        -1.053170        -1.276444
 H        -0.065794        -1.611027         0.310616
 H         1.439481         1.268666        -2.058390
 H         1.506071         2.176720        -0.528633
 H         4.332284         1.343275        -2.165854
 H         5.219922         0.279411        -1.008005
 H         2.949637        -1.545288         0.142963
 H         2.116012        -0.401444         2.004604
 H         1.009437         1.141865         1.853709
