19
Iteration:  4939
 C         0.015865        -0.745623        -0.266277
 C         1.368158        -0.065934        -0.100488
 C         1.849014         1.194642        -0.911846
 C         3.223494         0.793807        -0.282567
 C         4.190083         0.596477        -1.519587
 O         3.364020        -0.729281        -1.836795
 C         2.773805        -0.686035        -0.512404
 O         3.037678         1.114835         1.153090
 C         1.687209         0.507919         1.298535
 H        -0.788323        -0.065361        -0.293665
 H         0.109015        -1.046151        -1.321813
 H        -0.120741        -1.533035         0.485927
 H         1.804558         1.071751        -1.993442
 H         1.304021         2.214109        -0.681110
 H         3.966367         1.495610        -2.220696
 H         5.265165         0.400862        -1.458306
 H         2.914773        -1.634489         0.106730
 H         1.735959        -0.051741         2.193880
 H         0.849235         1.250243         1.495825
