19
Iteration:  3728charge 0 multiplicity 1
 C        -0.035077        -0.793599        -0.313275
 C         1.343892        -0.068542        -0.075444
 C         1.696253         1.161507        -0.930005
 C         3.219882         0.725303        -0.275673
 C         4.267621         0.538906        -1.353054
 O         3.317651        -0.568301        -1.896989
 C         2.776402        -0.717077        -0.462659
 O         3.093682         1.140562         1.000288
 C         1.782958         0.548434         1.322476
 H        -0.860241        -0.171921        -0.293098
 H         0.040563        -1.297044        -1.284865
 H        -0.047611        -1.570359         0.461779
 H         1.619183         1.042130        -2.043547
 H         1.383425         2.181740        -0.474155
 H         4.325588         1.411865        -1.982466
 H         5.243131         0.144254        -0.871938
 H         3.171782        -1.571210         0.070925
 H         1.632201        -0.041008         2.255484
 H         1.042754         1.396718         1.389539
