19
Iteration:  3777charge 0 multiplicity 1
 C         0.003743        -0.754028        -0.165981
 C         1.241590         0.025611        -0.139639
 C         1.745598         1.236305        -0.908213
 C         3.116768         0.828631        -0.439768
 C         4.347556         0.526568        -1.393982
 O         3.497089        -0.741425        -1.824714
 C         2.735128        -0.626514        -0.497603
 O         2.940087         1.176066         1.016258
 C         1.762012         0.374561         1.265838
 H        -0.653332        -0.107544         0.512609
 H        -0.414724        -0.669508        -1.170739
 H         0.184160        -1.731989         0.258070
 H         1.687349         1.149523        -1.997330
 H         1.600928         2.142116        -0.474785
 H         4.479344         1.266371        -2.234350
 H         5.191111         0.157427        -0.863291
 H         3.151188        -1.215003         0.378071
 H         2.024518        -0.624686         1.686031
 H         1.076121         0.766661         2.017095
