19
Iteration:  3278charge 0 multiplicity 1
 C        -0.010594        -0.801372        -0.293756
 C         1.259024         0.047826        -0.091778
 C         1.716467         1.295655        -0.967588
 C         3.100877         0.732221        -0.353671
 C         4.218657         0.530946        -1.474079
 O         3.558219        -0.717445        -1.824765
 C         2.583837        -0.663613        -0.351893
 O         3.107738         1.077306         1.043056
 C         1.808608         0.538206         1.321886
 H        -0.803008        -0.272505         0.232558
 H        -0.063849        -0.914966        -1.415449
 H         0.105023        -1.883209         0.050530
 H         1.755804         1.048235        -1.954467
 H         1.307405         2.295785        -0.723038
 H         4.214231         1.179237        -2.349993
 H         5.275499         0.357951        -0.982487
 H         3.133362        -1.355992         0.288967
 H         1.787945        -0.312230         1.984515
 H         1.265815         1.359011         1.739810
