19
Iteration:  4536charge 0 multiplicity 1
 C        -0.080034        -0.685491        -0.300494
 C         1.349493        -0.008357        -0.054588
 C         1.670002         1.183469        -0.953108
 C         3.116859         0.797143        -0.459946
 C         4.322524         0.539824        -1.308113
 O         3.421550        -0.656099        -1.810763
 C         2.723400        -0.683373        -0.538658
 O         3.029672         1.188523         0.985585
 C         1.840258         0.384231         1.392221
 H        -0.826865        -0.231302         0.332175
 H        -0.314877        -0.939367        -1.327681
 H         0.138708        -1.709792         0.086431
 H         1.612139         0.970471        -2.028423
 H         1.375839         2.231520        -0.540583
 H         4.768443         1.148454        -2.186054
 H         5.108484         0.084393        -0.640148
 H         3.175818        -1.487992         0.065196
 H         2.121801        -0.468922         2.027136
 H         1.062083         0.980993         1.913599
