19
Iteration:  3087charge 0 multiplicity 1
 C         0.037819        -0.842035        -0.305417
 C         1.231364         0.007950        -0.055069
 C         1.688756         1.276238        -0.871812
 C         3.142730         0.869662        -0.430220
 C         4.247602         0.385882        -1.308820
 O         3.427085        -0.684583        -1.834437
 C         2.656620        -0.516008        -0.455837
 O         3.137418         1.190577         0.935494
 C         1.789234         0.370844         1.334086
 H        -0.879798        -0.325478         0.158867
 H         0.065917        -0.938742        -1.393829
 H         0.253781        -1.914944        -0.077700
 H         1.480631         1.199915        -1.955946
 H         1.472738         2.253540        -0.384052
 H         4.640828         1.106929        -2.106723
 H         5.210987        -0.042064        -0.746558
 H         3.088618        -1.291817         0.191476
 H         1.797162        -0.437361         2.016042
 H         1.060608         1.089078         1.626652
