19
Iteration:  1044
 C        -0.056044        -0.687891        -0.277439
 C         1.249923        -0.031908        -0.110624
 C         1.679262         1.297070        -0.860344
 C         3.116501         0.799013        -0.381097
 C         4.223223         0.567369        -1.394287
 O         3.424051        -0.594020        -1.828658
 C         2.753638        -0.604693        -0.555115
 O         3.102005         1.047881         1.015480
 C         1.902869         0.235803         1.328300
 H         0.150441        -1.806366        -0.325583
 H        -0.767991        -0.379936         0.650731
 H        -0.552455        -0.325218        -1.205453
 H         1.416000         1.111319        -1.878921
 H         1.486577         2.283724        -0.562614
 H         4.391876         1.544408        -2.002426
 H         5.074981         0.163072        -0.850727
 H         3.282874        -1.256461         0.194890
 H         2.119136        -0.773522         1.666692
 H         1.303704         0.700651         2.157281
