19
Iteration:  3292
 C        -0.024249        -0.706852        -0.250739
 C         1.272726        -0.023972        -0.103344
 C         1.769298         1.167722        -0.968156
 C         3.152204         0.794910        -0.413113
 C         4.214083         0.511207        -1.347225
 O         3.483457        -0.694639        -1.770341
 C         2.695713        -0.641900        -0.468825
 O         3.106130         1.164420         0.957885
 C         1.746709         0.436354         1.344236
 H        -0.971971        -0.217550        -0.017544
 H        -0.199393        -1.007027        -1.306806
 H        -0.032808        -1.615861         0.322458
 H         1.444453         1.274871        -2.038716
 H         1.502186         2.161996        -0.505504
 H         4.325386         1.349303        -2.170981
 H         5.249039         0.301673        -0.999879
 H         2.962990        -1.547422         0.152688
 H         2.101891        -0.392137         2.011064
 H         1.025964         1.145529         1.867980
