19
Iteration:  1743charge 0 multiplicity 1
 C        -0.022761        -0.765423        -0.249976
 C         1.304386         0.006929        -0.115141
 C         1.762260         1.294910        -0.967700
 C         3.152684         0.817267        -0.357199
 C         4.265128         0.461077        -1.319607
 O         3.395141        -0.613598        -1.780009
 C         2.668418        -0.655954        -0.541112
 O         3.050190         1.172434         1.007515
 C         1.850253         0.358945         1.297747
 H        -0.851133        -0.214877        -0.721083
 H         0.304632        -1.758170        -0.742710
 H        -0.740512        -1.106564         0.645184
 H         1.486228         1.134561        -1.990582
 H         1.431216         2.193593        -0.573048
 H         4.511315         1.191445        -2.084519
 H         5.242491         0.008805        -0.963727
 H         3.131561        -1.579202        -0.070605
 H         2.198860        -0.560368         1.795842
 H         1.149234         0.965506         1.931682
