19
Iteration:  1467charge 0 multiplicity 1
 C        -0.088173        -0.777817        -0.217429
 C         1.277892        -0.027631        -0.175602
 C         1.744996         1.233950        -0.955341
 C         3.102982         0.798301        -0.348418
 C         4.241475         0.622763        -1.423048
 O         3.491366        -0.674851        -1.892589
 C         2.714515        -0.659599        -0.547179
 O         3.159532         1.049110         1.195860
 C         1.764054         0.451351         1.310503
 H        -0.732371        -0.508334        -1.136111
 H         0.060028        -1.866922        -0.163994
 H        -0.891548        -0.514437         0.590554
 H         1.755111         1.220404        -2.046803
 H         1.477561         2.180649        -0.555005
 H         4.116170         1.332882        -2.227246
 H         5.294577         0.419507        -1.103974
 H         3.104332        -1.378452         0.232872
 H         1.850745        -0.432433         1.910684
 H         1.219072         1.279267         1.756435
