19
Iteration:  3498charge 0 multiplicity 1
 C        -0.090654        -0.760843        -0.107470
 C         1.330322        -0.055021        -0.201825
 C         1.818706         1.279094        -0.973428
 C         3.151439         0.802606        -0.311849
 C         4.209369         0.598666        -1.359787
 O         3.461817        -0.740414        -1.779383
 C         2.758519        -0.646806        -0.569356
 O         3.048944         1.083886         1.045033
 C         1.781586         0.479737         1.213272
 H        -0.914954         0.041297        -0.162323
 H        -0.346623        -1.261115        -1.102977
 H        -0.186928        -1.373395         0.846932
 H         1.861465         1.081199        -2.103302
 H         1.393670         2.169801        -0.567943
 H         4.252214         1.344632        -2.100358
 H         5.223500         0.342749        -0.999339
 H         3.086510        -1.488819         0.092168
 H         1.797118        -0.410571         1.861555
 H         0.910511         1.106407         1.541211
