19
Iteration:  3418
 C         0.032461        -0.696377        -0.326977
 C         1.387516        -0.071996        -0.131184
 C         1.769592         1.181624        -0.942004
 C         3.209147         0.833417        -0.267047
 C         4.303792         0.466553        -1.445277
 O         3.244826        -0.674362        -1.772869
 C         2.755907        -0.681241        -0.416878
 O         3.002628         1.254910         0.999056
 C         1.777811         0.451638         1.350309
 H        -0.828961        -0.403770         0.235551
 H        -0.200668        -0.739125        -1.405918
 H         0.013048        -1.815125        -0.251272
 H         1.952050         0.965569        -1.943989
 H         1.157338         2.174153        -0.780932
 H         4.412564         1.127245        -2.271685
 H         5.225869        -0.047476        -1.110496
 H         3.123395        -1.553953         0.066863
 H         2.036383        -0.468173         1.980286
 H         1.065008         1.097484         1.848048
