19
Iteration:  4109charge 0 multiplicity 1
 C        -0.070255        -0.703128        -0.258212
 C         1.225005         0.001946        -0.169831
 C         1.646021         1.269292        -0.956350
 C         3.108557         0.811590        -0.420731
 C         4.238897         0.563550        -1.374165
 O         3.548833        -0.683375        -1.745685
 C         2.685916        -0.628441        -0.495130
 O         3.118391         1.084575         1.045034
 C         1.884194         0.372453         1.310638
 H        -0.913258        -0.201058         0.201163
 H        -0.388801        -0.929980        -1.259621
 H        -0.020822        -1.634436         0.364930
 H         1.525749         0.866026        -1.914827
 H         1.258568         2.302000        -0.777018
 H         4.598952         1.346133        -2.108382
 H         5.163421         0.160184        -0.869857
 H         3.032925        -1.542433         0.096255
 H         2.036469        -0.645090         1.833193
 H         1.170879         1.035677         1.840447
