19
Iteration:  2864
 C        -0.069910        -0.759295        -0.198026
 C         1.312856        -0.016868        -0.228817
 C         1.709944         1.278246        -0.969138
 C         3.106259         0.778399        -0.447456
 C         4.293928         0.627463        -1.412373
 O         3.503301        -0.694737        -1.720696
 C         2.697227        -0.586471        -0.460720
 O         2.996311         1.118322         1.053479
 C         1.836072         0.281184         1.290163
 H        -0.566589        -0.111380         0.622167
 H        -0.630621        -0.653435        -1.140287
 H         0.093182        -1.716266         0.321986
 H         1.509392         1.122495        -2.079398
 H         1.624665         2.337967        -0.742281
 H         4.571186         1.135546        -2.487793
 H         5.196627         0.353139        -0.826377
 H         2.933280        -1.382068         0.267476
 H         2.219458        -0.559899         1.786442
 H         1.171686         0.883752         1.899416
