19
Iteration:  2706charge 0 multiplicity 1
 C        -0.027366        -0.669496        -0.129519
 C         1.317956        -0.113932        -0.176287
 C         1.781058         1.087045        -0.983831
 C         3.208154         0.669791        -0.264246
 C         4.289337         0.608495        -1.362973
 O         3.429220        -0.546263        -1.844463
 C         2.756285        -0.650469        -0.542907
 O         3.053886         1.177812         1.030314
 C         1.672361         0.431384         1.276854
 H        -0.669381        -0.185004         0.551345
 H        -0.648218        -0.554575        -1.032220
 H         0.017876        -1.778397        -0.000815
 H         1.803677         0.757402        -2.039418
 H         1.181552         2.115021        -0.779685
 H         4.488832         1.364970        -2.078459
 H         5.180785        -0.079443        -1.026888
 H         3.025760        -1.618660        -0.086230
 H         1.692325        -0.288259         2.023595
 H         0.983511         1.233669         1.521367
