19
Iteration:  2424charge 0 multiplicity 1
 C        -0.020865        -0.692737        -0.180875
 C         1.306131        -0.094925        -0.054052
 C         1.701916         1.192622        -0.989392
 C         3.152056         0.785190        -0.368792
 C         4.278920         0.457678        -1.306326
 O         3.383803        -0.548443        -1.851029
 C         2.701613        -0.660552        -0.501975
 O         3.009480         1.213172         0.992242
 C         1.855223         0.343407         1.264705
 H        -0.719926         0.029468        -0.457282
 H         0.031066        -1.214359        -1.179640
 H        -0.085263        -1.422193         0.672191
 H         1.690624         1.126483        -2.091570
 H         1.558981         2.074649        -0.502468
 H         4.788967         1.274244        -1.946803
 H         5.145170        -0.019087        -0.824711
 H         3.125761        -1.575534         0.037123
 H         2.131834        -0.532291         1.920407
 H         1.086859         1.081588         1.583347
