19
Iteration:  4348charge 0 multiplicity 1
 C         0.011234        -0.781853        -0.323517
 C         1.366788        -0.022050        -0.027735
 C         1.760035         1.156883        -0.877271
 C         3.187226         0.793030        -0.356672
 C         4.326804         0.501146        -1.389374
 O         3.360450        -0.634481        -1.922169
 C         2.720780        -0.680446        -0.451317
 O         3.010439         1.215041         1.033776
 C         1.708728         0.512687         1.375465
 H        -0.824105        -0.347165         0.184545
 H        -0.169503        -0.840689        -1.385022
 H        -0.034451        -1.871607        -0.041515
 H         1.739832         0.769537        -1.969089
 H         1.274394         2.107152        -0.619180
 H         4.554219         1.313765        -2.197413
 H         5.215726        -0.007818        -1.110098
 H         3.210164        -1.552448        -0.003173
 H         1.913179        -0.334063         2.037461
 H         0.959829         1.150273         1.755828
