19
Iteration:  3099charge 0 multiplicity 1
 C         0.051153        -0.843877        -0.372665
 C         1.356131        -0.031755        -0.072292
 C         1.670016         1.260287        -0.879655
 C         3.126487         0.870153        -0.404228
 C         4.275920         0.416944        -1.365870
 O         3.360956        -0.657008        -1.848573
 C         2.708135        -0.660837        -0.484884
 O         3.123374         1.212913         1.044344
 C         1.764148         0.476420         1.344658
 H        -0.919323        -0.314599        -0.051916
 H        -0.186347        -0.912144        -1.438031
 H        -0.108734        -1.773342         0.239263
 H         1.392681         1.094154        -1.954604
 H         1.219641         2.184314        -0.565411
 H         4.743945         1.006468        -2.182685
 H         5.022832        -0.015849        -0.533095
 H         3.086125        -1.519718         0.083023
 H         2.099407        -0.288088         2.023568
 H         1.232758         1.222494         1.894961
