19
Iteration:  1562charge 0 multiplicity 1
 C         0.025872        -0.710990        -0.287082
 C         1.326858        -0.065654        -0.178793
 C         1.732302         1.257021        -0.823258
 C         3.129412         0.842869        -0.318580
 C         4.161705         0.565815        -1.417450
 O         3.403669        -0.644860        -1.842256
 C         2.765266        -0.636508        -0.591534
 O         3.158946         0.974338         1.130631
 C         1.746366         0.430727         1.301704
 H         0.012574        -1.677292        -0.804508
 H        -0.260034        -0.936114         0.757375
 H        -0.807183        -0.160979        -0.634618
 H         1.762293         1.170349        -1.952682
 H         1.182483         2.219631        -0.544675
 H         3.968004         1.337846        -2.292052
 H         5.177204         0.441437        -1.162263
 H         3.251923        -1.295981         0.080267
 H         1.748433        -0.396376         2.096823
 H         1.069764         1.240423         1.455446
