19
Iteration:  3364charge 0 multiplicity 1
 C        -0.085612        -0.738033        -0.226504
 C         1.288969        -0.069613        -0.232842
 C         1.728626         1.209689        -0.959792
 C         3.119951         0.747665        -0.347724
 C         4.195543         0.543147        -1.356225
 O         3.539222        -0.660468        -1.788298
 C         2.652243        -0.676014        -0.504573
 O         3.203118         1.109907         1.030467
 C         1.735331         0.532920         1.314791
 H        -1.004170        -0.096485        -0.177384
 H        -0.350724        -1.587598        -0.949065
 H        -0.113189        -1.350630         0.757542
 H         1.529918         1.251193        -1.978762
 H         1.627706         2.255565        -0.566629
 H         4.355745         1.230858        -2.069865
 H         5.185343         0.334952        -0.941285
 H         3.056288        -1.514089         0.014386
 H         1.811836        -0.282971         2.041377
 H         1.165420         1.389013         1.576934
