19
Iteration:  3041charge 0 multiplicity 1
 C        -0.051963        -0.699385        -0.163734
 C         1.327601        -0.087903        -0.159758
 C         1.832898         1.154786        -0.958160
 C         3.179478         0.737101        -0.275185
 C         4.240683         0.542686        -1.401803
 O         3.410182        -0.588966        -1.821451
 C         2.768438        -0.699564        -0.547886
 O         3.044144         1.131997         1.059200
 C         1.685643         0.475385         1.233507
 H        -0.700223        -0.045911         0.533105
 H        -0.428264        -0.868406        -1.184641
 H         0.020847        -1.730782         0.135089
 H         1.859497         0.837634        -1.981616
 H         1.284026         2.124364        -0.637235
 H         4.185737         1.452404        -2.150957
 H         5.312671         0.361903        -1.199142
 H         3.313365        -1.361434         0.132639
 H         1.913068        -0.255466         1.996518
 H         0.931653         1.139089         1.658804
