19
Iteration:  3247
 C         0.056810        -0.791637        -0.265736
 C         1.373803        -0.084031        -0.139917
 C         1.801772         1.213730        -0.963143
 C         3.158012         0.764267        -0.316363
 C         4.204705         0.513067        -1.435011
 O         3.338692        -0.647981        -1.791334
 C         2.711541        -0.649712        -0.377223
 O         3.115005         1.114897         1.046610
 C         1.684433         0.545113         1.247241
 H        -0.693453        -0.364923         0.390106
 H        -0.384493        -0.691686        -1.285077
 H        -0.018440        -1.853827        -0.128188
 H         1.773460         1.374062        -2.026970
 H         1.304226         2.122742        -0.513626
 H         4.413018         1.113897        -2.395151
 H         5.237517         0.169653        -1.084469
 H         3.248558        -1.338810         0.318423
 H         1.598052        -0.214454         2.057773
 H         1.125028         1.500008         1.419025
