19
Iteration:  2203
 C        -0.016267        -0.687911        -0.290232
 C         1.374279        -0.120796        -0.192554
 C         1.736898         1.181848        -0.900083
 C         3.117794         0.786677        -0.335836
 C         4.154869         0.491072        -1.320604
 O         3.361040        -0.598406        -1.908195
 C         2.768932        -0.694781        -0.445407
 O         3.040233         1.235386         1.003594
 C         1.855588         0.383550         1.383297
 H        -0.697295         0.087777        -0.399471
 H         0.018274        -1.376294        -1.158576
 H        -0.443478        -1.240048         0.564624
 H         1.836517         1.048445        -1.962133
 H         1.408607         2.220466        -0.664916
 H         4.630209         1.190275        -2.049244
 H         4.971340        -0.015394        -0.817086
 H         3.320118        -1.544141         0.056288
 H         2.232148        -0.250394         2.111783
 H         1.147085         1.035784         1.836057
