19
Iteration:   717
 C        -0.009438        -0.689514        -0.152673
 C         1.288746        -0.086419        -0.138246
 C         1.723787         1.315867        -0.740548
 C         3.178094         0.856490        -0.298738
 C         4.267157         0.554324        -1.379694
 O         3.303912        -0.314823        -2.009735
 C         2.667478        -0.632961        -0.671339
 O         3.087843         0.993810         1.099259
 C         1.945145         0.019603         1.258473
 H        -0.425316        -1.056126         0.814716
 H        -0.742967         0.004867        -0.555185
 H        -0.151318        -1.578255        -0.930722
 H         1.444434         1.428634        -1.786795
 H         1.357148         2.154210        -0.159915
 H         4.612437         1.335120        -2.163608
 H         5.081490         0.115116        -0.847858
 H         3.076840        -1.594138        -0.258144
 H         2.297284        -0.798935         1.841491
 H         1.203816         0.506217         1.910960
