19
Iteration:    45charge 0 multiplicity 1
 C        -0.076651        -0.720678        -0.257011
 C         1.294516        -0.119254        -0.106010
 C         1.644658         1.370049        -0.289554
 C         3.170028         0.838886        -0.204866
 C         4.097374         0.888064        -1.538065
 O         3.183409         0.068840        -2.260684
 C         2.582754        -0.400485        -0.900960
 O         3.409147         0.421629         1.222957
 C         2.102757        -0.292293         1.334612
 H        -0.248108        -1.395689         0.600143
 H        -0.769920         0.126704        -0.166923
 H        -0.263171        -1.304747        -1.136393
 H         1.503678         1.777794        -1.283735
 H         1.316453         2.102224         0.448164
 H         4.190829         1.865317        -2.003066
 H         5.041988         0.383966        -1.487285
 H         2.925062        -1.409062        -0.670264
 H         2.298858        -1.378196         1.474850
 H         1.496605         0.037073         2.191925
