19
Iteration:   823
 C        -0.026558        -0.725694        -0.262385
 C         1.313113        -0.047971        -0.186426
 C         1.714408         1.327551        -0.776427
 C         3.200077         0.841175        -0.326301
 C         4.208383         0.618815        -1.321463
 O         3.227080        -0.479091        -1.996207
 C         2.693450        -0.643607        -0.638616
 O         3.104589         1.004924         1.119870
 C         1.988487         0.158951         1.341008
 H        -0.041448        -1.133147        -1.265809
 H        -0.054163        -1.562979         0.480420
 H        -0.770218        -0.061934        -0.142947
 H         1.504833         1.422555        -1.844432
 H         1.316043         2.195481        -0.295806
 H         4.670420         1.446230        -1.846711
 H         5.025280        -0.018725        -0.850251
 H         3.124311        -1.498324        -0.089809
 H         2.316460        -0.821634         1.757657
 H         1.253961         0.694413         1.990849
