19
Iteration:  3707
 C         0.046603        -0.808433        -0.268220
 C         1.328398        -0.067775        -0.100835
 C         1.837142         1.246451        -0.895513
 C         3.165001         0.844648        -0.334305
 C         4.204216         0.537675        -1.561979
 O         3.448046        -0.684900        -1.816879
 C         2.699712        -0.627891        -0.490562
 O         3.051392         1.053904         1.130060
 C         1.670978         0.562084         1.303869
 H        -0.751291        -0.141921        -0.387853
 H         0.022497        -1.429337        -1.143495
 H        -0.116456        -1.359768         0.666437
 H         1.692873         1.022009        -1.935329
 H         1.413355         2.211488        -0.496876
 H         4.197398         1.304668        -2.365268
 H         5.210409         0.245660        -1.116884
 H         3.088363        -1.453579         0.117591
 H         1.719572        -0.370003         1.903296
 H         0.865737         1.244853         1.751630
