19
Iteration:  2866
 C        -0.061548        -0.755566        -0.190850
 C         1.311200        -0.021178        -0.216516
 C         1.723633         1.288912        -0.976199
 C         3.092105         0.781183        -0.445608
 C         4.291656         0.645035        -1.408386
 O         3.490227        -0.705814        -1.716032
 C         2.707592        -0.598571        -0.456374
 O         2.991410         1.126168         1.049014
 C         1.840568         0.271112         1.272813
 H        -0.606001        -0.073474         0.588063
 H        -0.641549        -0.630649        -1.123690
 H         0.109579        -1.746731         0.216392
 H         1.528767         1.161844        -1.994506
 H         1.693389         2.274003        -0.761070
 H         4.527864         1.087404        -2.471323
 H         5.195377         0.393788        -0.829620
 H         2.990060        -1.380773         0.234786
 H         2.185266        -0.642687         1.837754
 H         1.200449         0.919885         1.858873
