19
Iteration:  1786
 C         0.024438        -0.654731        -0.173107
 C         1.319891        -0.044303        -0.133524
 C         1.681572         1.148215        -0.932597
 C         3.245832         0.740642        -0.352407
 C         4.264129         0.518980        -1.342753
 O         3.447197        -0.587683        -1.843619
 C         2.752090        -0.692412        -0.587308
 O         3.030928         1.059433         1.064565
 C         1.711231         0.489308         1.276827
 H        -0.779555         0.100875        -0.021633
 H        -0.030869        -1.326394        -1.113507
 H        -0.227122        -1.273604         0.788256
 H         1.717280         1.038914        -1.996859
 H         1.274978         2.080319        -0.640610
 H         4.290664         1.303054        -2.213638
 H         5.303385         0.417099        -1.111818
 H         3.086154        -1.654029        -0.124371
 H         1.586192        -0.186521         2.188240
 H         0.898014         1.300978         1.479782
