19
Iteration:  2110charge 0 multiplicity 1
 C        -0.113056        -0.738888        -0.179553
 C         1.301848        -0.076923        -0.116433
 C         1.807854         1.139985        -1.012259
 C         3.175326         0.767764        -0.324790
 C         4.261250         0.578683        -1.323882
 O         3.399188        -0.596261        -1.873264
 C         2.784314        -0.656599        -0.487181
 O         3.054170         1.163093         1.007860
 C         1.779355         0.447777         1.295139
 H        -0.894745        -0.515756         0.660538
 H        -0.493414        -0.579623        -1.177986
 H        -0.309295        -1.811235        -0.167893
 H         1.731005         0.975005        -2.077358
 H         1.636923         2.106512        -0.806027
 H         4.657405         1.343090        -1.956082
 H         5.240094         0.110193        -0.873114
 H         3.101660        -1.508070         0.094506
 H         1.951097        -0.364431         2.089854
 H         0.918850         1.058841         1.675193
