19
Iteration:  1395charge 0 multiplicity 1
 C        -0.009875        -0.771708        -0.256442
 C         1.355543        -0.064017        -0.117970
 C         1.734842         1.223257        -0.912739
 C         3.147714         0.813613        -0.363374
 C         4.304548         0.489445        -1.284475
 O         3.283009        -0.516076        -1.839500
 C         2.658932        -0.648644        -0.559531
 O         3.094041         1.163485         1.053329
 C         1.879426         0.340019         1.256968
 H        -0.115802        -1.137639        -1.260260
 H        -0.239734        -1.605542         0.430926
 H        -0.881039        -0.174453        -0.317368
 H         1.482402         1.284805        -1.994529
 H         1.247752         2.205159        -0.441851
 H         4.716340         1.207952        -2.042080
 H         5.055734        -0.144174        -0.738773
 H         3.212293        -1.473794        -0.118363
 H         2.326631        -0.503481         1.854474
 H         1.061627         0.827983         1.887575
