19
Iteration:  4412charge 0 multiplicity 1
 C        -0.038357        -0.705675        -0.127190
 C         1.283611        -0.021555        -0.117542
 C         1.806904         1.288326        -0.967866
 C         3.100261         0.866871        -0.368374
 C         4.248747         0.495792        -1.418791
 O         3.567408        -0.654117        -1.809874
 C         2.743685        -0.739140        -0.573409
 O         2.922452         1.142128         1.069297
 C         1.763901         0.363939         1.278760
 H        -0.818577         0.042088        -0.267365
 H        -0.084901        -1.390210        -0.979586
 H        -0.123572        -1.183830         0.862831
 H         1.695360         1.091294        -2.044035
 H         1.361786         2.173849        -0.680971
 H         4.421167         1.261628        -2.288568
 H         5.232649         0.210884        -1.024987
 H         3.127563        -1.517172         0.034265
 H         2.129578        -0.596374         1.698255
 H         1.069365         0.939689         1.903603
