19
Iteration:  1408charge 0 multiplicity 1
 C        -0.050544        -0.754667        -0.289230
 C         1.315706        -0.111394        -0.096076
 C         1.715070         1.189784        -0.884642
 C         3.186609         0.909657        -0.320708
 C         4.323241         0.406783        -1.381042
 O         3.332043        -0.501227        -1.900608
 C         2.731578        -0.629944        -0.562232
 O         3.034032         1.152443         1.075858
 C         1.838361         0.371774         1.365415
 H        -0.061215        -0.912189        -1.372284
 H        -0.157600        -1.802334         0.182069
 H        -0.709471        -0.008234         0.178824
 H         1.732382         0.908205        -1.941089
 H         1.296153         2.161550        -0.619843
 H         4.612892         1.089050        -2.303378
 H         5.238000         0.024658        -0.980487
 H         3.004854        -1.464673         0.045121
 H         2.009498        -0.586360         1.907595
 H         1.207286         1.016380         1.952824
