19
Iteration:  1513charge 0 multiplicity 1
 C        -0.053091        -0.777252        -0.230609
 C         1.352882        -0.112688        -0.193561
 C         1.708505         1.226938        -0.903416
 C         3.211743         0.796709        -0.256504
 C         4.250029         0.509132        -1.302003
 O         3.309781        -0.554648        -1.908873
 C         2.765271        -0.675805        -0.566901
 O         3.059608         1.206647         1.059666
 C         1.880756         0.379157         1.283269
 H        -0.348707        -0.953385        -1.301760
 H        -0.200934        -1.630822         0.457994
 H        -0.848430         0.054323        -0.061471
 H         1.669747         1.285790        -2.023274
 H         1.084485         2.156030        -0.573983
 H         4.630545         1.248347        -1.892755
 H         5.016973        -0.135007        -0.708964
 H         2.993856        -1.719341        -0.086663
 H         2.343536        -0.482694         1.784112
 H         1.110919         1.016996         1.858743
