19
Iteration:    17charge 0 multiplicity 1
 C         0.003315        -0.742262        -0.228062
 C         1.311574        -0.064662        -0.068011
 C         1.785886         1.524990        -0.261667
 C         3.122614         0.736510        -0.287526
 C         4.044521         0.958414        -1.405299
 O         3.135849         0.025838        -2.194919
 C         2.573967        -0.502668        -0.860331
 O         3.327384         0.499410         1.085690
 C         2.081322        -0.383768         1.212304
 H        -0.516340        -0.907390         0.766232
 H        -0.477024        -0.037892        -0.927372
 H         0.074432        -1.783619        -0.640318
 H         1.450879         2.093514        -1.177182
 H         1.832729         2.089300         0.714180
 H         3.916182         2.030194        -1.801034
 H         5.038939         0.467947        -1.364239
 H         2.964100        -1.498384        -0.544529
 H         2.377857        -1.446003         1.127708
 H         1.599184        -0.304690         2.195121
