19
Iteration:  2282
 C        -0.048848        -0.788614        -0.201037
 C         1.305478        -0.014927        -0.183116
 C         1.741091         1.221677        -0.947555
 C         3.225152         0.838867        -0.364517
 C         4.266093         0.433914        -1.339455
 O         3.420481        -0.634159        -1.879435
 C         2.721233        -0.642589        -0.517770
 O         3.063105         1.188515         1.087633
 C         1.737925         0.432454         1.306884
 H        -0.925120        -0.346409         0.279438
 H        -0.555586        -1.043843        -1.152917
 H         0.215025        -1.770100         0.260475
 H         1.623852         1.061269        -2.081082
 H         1.335572         2.200635        -0.411462
 H         4.428966         1.220756        -2.192257
 H         5.232108         0.098232        -0.978697
 H         3.278997        -1.409301         0.067753
 H         1.974242        -0.359387         1.939527
 H         1.032818         1.134515         1.725629
