19
Iteration:  1112charge 0 multiplicity 1
 C        -0.027346        -0.796725        -0.258869
 C         1.380202        -0.126621        -0.133312
 C         1.720609         1.185900        -0.965391
 C         3.217601         0.753968        -0.283907
 C         4.283588         0.575007        -1.440355
 O         3.303430        -0.450431        -1.902620
 C         2.706330        -0.646756        -0.599360
 O         3.144516         0.996903         1.225246
 C         1.755973         0.488806         1.343994
 H         0.011008        -1.823000        -0.693153
 H        -0.559833        -0.775336         0.813053
 H        -0.743652        -0.040510        -0.741605
 H         1.667520         0.972466        -2.022802
 H         1.410980         2.143168        -0.692273
 H         4.374136         1.544697        -2.180633
 H         5.169920         0.012456        -1.424173
 H         3.055284        -1.651920        -0.171063
 H         1.849789        -0.115573         2.265558
 H         0.912893         1.207537         1.567140
