19
Iteration:  1447
 C         0.005005        -0.731524        -0.257958
 C         1.322957        -0.066652        -0.206882
 C         1.755100         1.230109        -0.873997
 C         3.175945         0.753310        -0.256627
 C         4.152151         0.629691        -1.451680
 O         3.443087        -0.602054        -1.745472
 C         2.719587        -0.668180        -0.504569
 O         3.101176         1.020596         1.017258
 C         1.790602         0.432122         1.259598
 H        -0.680124        -0.471243        -1.107215
 H        -0.045484        -1.797145        -0.175638
 H        -0.626539        -0.359892         0.606493
 H         1.940803         1.159035        -1.967999
 H         1.306950         2.200475        -0.337106
 H         4.004005         1.308524        -2.211898
 H         5.254287         0.416847        -1.227325
 H         2.871678        -1.763032        -0.155733
 H         1.875909        -0.269181         2.119861
 H         1.095311         1.348899         1.446376
