19
Iteration:  1315
 C        -0.023826        -0.642719        -0.248400
 C         1.397585        -0.129715        -0.145855
 C         1.710937         1.158747        -0.871554
 C         3.141144         0.768766        -0.323474
 C         4.195779         0.636962        -1.348726
 O         3.371930        -0.569780        -1.893934
 C         2.726916        -0.741420        -0.547170
 O         3.070517         1.138338         1.073950
 C         1.836713         0.329876         1.305281
 H        -0.005797        -1.133322        -1.215265
 H        -0.355599        -1.327496         0.447761
 H        -0.639609         0.217692        -0.191056
 H         1.605596         0.896134        -1.969775
 H         1.469037         2.279041        -0.495519
 H         4.329732         1.407962        -2.041302
 H         5.258988         0.356202        -1.081438
 H         3.116559        -1.690388        -0.122871
 H         1.924053        -0.430500         2.154766
 H         1.148546         1.180603         1.624023
