19
Iteration:  4129
 C        -0.022847        -0.701593        -0.179571
 C         1.401090        -0.132339        -0.222422
 C         1.841517         1.214651        -0.925298
 C         3.148189         0.790956        -0.285216
 C         4.212423         0.534651        -1.316637
 O         3.406889        -0.641266        -1.843125
 C         2.720405        -0.677832        -0.527741
 O         3.034946         1.172135         1.020951
 C         1.718685         0.430411         1.249970
 H        -0.750494        -0.175433         0.357642
 H        -0.420264        -0.665993        -1.194773
 H        -0.129581        -1.704042         0.154943
 H         1.675205         1.175737        -1.977048
 H         1.431123         2.096386        -0.364194
 H         4.218355         1.158538        -2.263274
 H         5.155323         0.274845        -1.003738
 H         3.229204        -1.477988         0.113238
 H         1.928192        -0.403271         1.905878
 H         1.116466         1.141101         1.737339
