19
Iteration:  2371charge 0 multiplicity 1
 C        -0.042548        -0.721196        -0.169740
 C         1.324545         0.011975        -0.181276
 C         1.786598         1.213234        -0.903599
 C         3.200598         0.807216        -0.369004
 C         4.188391         0.622035        -1.436686
 O         3.477882        -0.686561        -1.803723
 C         2.747845        -0.724640        -0.458439
 O         3.068056         1.023397         1.059117
 C         1.699028         0.464958         1.225967
 H        -0.809362         0.134982         0.107756
 H        -0.142401        -1.224677        -1.145079
 H         0.002179        -1.391102         0.688553
 H         1.637904         1.133415        -2.061175
 H         1.037189         2.170257        -0.619847
 H         4.347698         1.375835        -2.389372
 H         5.219913         0.495151        -1.050706
 H         3.071712        -1.481239         0.312891
 H         1.805150        -0.422798         1.737583
 H         1.001480         1.151905         1.677297
