19
Iteration:   923charge 0 multiplicity 1
 C        -0.027750        -0.659151        -0.323981
 C         1.351596        -0.067753        -0.059471
 C         1.716654         1.290450        -0.805708
 C         3.130396         0.853625        -0.325364
 C         4.162312         0.565988        -1.361048
 O         3.375349        -0.524504        -1.963215
 C         2.711637        -0.627307        -0.587270
 O         3.123256         1.049300         1.058976
 C         1.887768         0.199762         1.384365
 H        -0.846984        -0.329622         0.319773
 H        -0.240800        -0.645730        -1.394763
 H         0.086839        -1.688631        -0.122732
 H         1.515451         1.072249        -1.832791
 H         1.259337         2.187734        -0.492235
 H         4.447449         1.341722        -2.163513
 H         5.041670         0.011865        -1.019347
 H         3.131714        -1.501212        -0.033931
 H         2.087972        -0.732680         1.944588
 H         1.104649         0.648179         2.033152
