19
Iteration:   741
 C        -0.066124        -0.760763        -0.174104
 C         1.235360        -0.026161        -0.125144
 C         1.760044         1.356274        -0.706369
 C         3.150170         0.800942        -0.336650
 C         4.239305         0.730274        -1.399468
 O         3.397870        -0.503953        -2.045097
 C         2.691734        -0.608038        -0.740903
 O         3.164099         0.828508         1.129265
 C         1.849496         0.233099         1.373259
 H        -0.213211        -1.630060         0.492495
 H        -0.955145        -0.140179        -0.029168
 H        -0.350237        -1.203824        -1.278946
 H         1.607992         1.471741        -1.802435
 H         1.382322         2.267624        -0.140837
 H         4.127168         1.587501        -2.131309
 H         5.297109         0.482293        -1.132278
 H         3.240831        -1.344693        -0.136264
 H         2.045931        -0.708234         1.829294
 H         1.264187         0.734325         2.119897
