19
Iteration:  4875
 C        -0.088669        -0.697959        -0.109097
 C         1.310251        -0.081469        -0.146551
 C         1.757008         1.244823        -1.004375
 C         3.149620         0.798564        -0.381114
 C         4.290213         0.393949        -1.313952
 O         3.507450        -0.579422        -1.927086
 C         2.728794        -0.675736        -0.484181
 O         2.944036         1.228881         1.019693
 C         1.813844         0.400273         1.319862
 H        -0.953910        -0.143531         0.310384
 H        -0.358587        -0.898073        -1.196284
 H        -0.075615        -1.723034         0.274669
 H         1.664434         0.975899        -2.001325
 H         1.314713         2.173756        -0.685905
 H         4.779779         1.087214        -2.057975
 H         5.127002        -0.009302        -0.680913
 H         3.210257        -1.536668        -0.007917
 H         2.201723        -0.483742         1.882541
 H         1.086437         1.006040         1.938716
