19
Iteration:  3587
 C         0.021447        -0.793260        -0.216231
 C         1.269456         0.060003        -0.163297
 C         1.844394         1.315860        -0.911485
 C         3.181084         0.797528        -0.406782
 C         4.221266         0.512783        -1.509487
 O         3.546110        -0.727089        -1.795413
 C         2.590457        -0.613742        -0.458738
 O         3.032792         1.094192         1.082538
 C         1.699355         0.431565         1.324676
 H        -0.963419        -0.585741         0.395116
 H        -0.264904        -1.127952        -1.256096
 H         0.442807        -1.773468         0.212319
 H         1.819795         1.209941        -2.019329
 H         1.580854         2.319287        -0.625348
 H         4.175775         1.213534        -2.350016
 H         5.204508         0.284073        -1.080217
 H         2.876832        -1.442862         0.254263
 H         1.747622        -0.311168         2.125335
 H         0.945851         1.232918         1.676935
