19
Iteration:   642
 C         0.039252        -0.703846        -0.275105
 C         1.362640        -0.113460        -0.208836
 C         1.768289         1.432530        -0.634405
 C         3.129026         0.875604        -0.283749
 C         3.987577         0.732816        -1.528526
 O         3.330791        -0.445123        -1.970379
 C         2.697636        -0.595393        -0.650772
 O         3.268016         0.702064         1.184968
 C         1.858158         0.144080         1.282657
 H        -0.876323        -0.126781        -0.297991
 H        -0.096559        -1.486444        -0.996409
 H        -0.157634        -1.196351         0.813922
 H         1.755078         1.779188        -1.703042
 H         1.289843         2.220973         0.050771
 H         3.931127         1.697417        -2.224165
 H         5.128622         0.639498        -1.283045
 H         3.046831        -1.437215        -0.041028
 H         1.866899        -0.842215         1.826634
 H         1.181725         0.785150         1.830978
