19
Iteration:  2971charge 0 multiplicity 1
 C        -0.001678        -0.808253        -0.220628
 C         1.291827         0.027773        -0.166206
 C         1.813447         1.314544        -0.905396
 C         3.114023         0.828588        -0.430360
 C         4.229287         0.478322        -1.398646
 O         3.448217        -0.640233        -1.820924
 C         2.680904        -0.595494        -0.430186
 O         3.048753         1.173652         1.030985
 C         1.765154         0.285207         1.253059
 H        -0.914282        -0.212630        -0.230623
 H        -0.128525        -1.634733        -0.921158
 H        -0.127166        -1.435181         0.717879
 H         1.820698         1.114924        -2.066764
 H         1.532737         2.310057        -0.354325
 H         4.364113         1.166626        -2.199724
 H         5.195767         0.245268        -1.046279
 H         3.256266        -1.210748         0.310471
 H         1.953385        -0.699449         1.834228
 H         1.132722         0.879896         2.000359
