19
Iteration:  2054
 C        -0.054839        -0.767604        -0.238238
 C         1.294733        -0.068600        -0.170933
 C         1.755248         1.248712        -0.886431
 C         3.132805         0.842689        -0.384050
 C         4.221392         0.571308        -1.375026
 O         3.473570        -0.682823        -1.796345
 C         2.738241        -0.626937        -0.527673
 O         3.111781         1.101611         1.033812
 C         1.747967         0.446834         1.302930
 H        -1.020095        -0.126124        -0.248799
 H        -0.358140        -1.252195        -1.161566
 H        -0.076941        -1.509116         0.538133
 H         1.814250         1.128668        -1.948531
 H         1.400747         2.104592        -0.569367
 H         4.212837         1.182417        -2.212432
 H         5.090696         0.078097        -0.927825
 H         3.241592        -1.328861         0.159273
 H         2.062726        -0.412182         1.957090
 H         0.999311         1.099444         1.797353
