19
Iteration:  2609
 C         0.047332        -0.697891        -0.318106
 C         1.383237        -0.082343        -0.121451
 C         1.686345         1.129452        -0.947947
 C         3.237970         0.741048        -0.250098
 C         4.210207         0.522412        -1.460430
 O         3.343049        -0.596540        -1.861345
 C         2.736028        -0.733586        -0.431064
 O         3.024339         1.198827         1.107163
 C         1.794159         0.491613         1.319667
 H        -0.615355         0.083459        -0.584379
 H         0.025319        -1.222360        -1.321160
 H        -0.453371        -1.386725         0.457560
 H         1.672633         1.158256        -2.014585
 H         1.175865         2.016868        -0.550161
 H         4.398831         1.377297        -2.076634
 H         5.239626         0.104239        -1.239163
 H         3.114273        -1.657094         0.029639
 H         2.084974        -0.369366         1.991088
 H         1.089037         1.232634         1.724529
