19
Iteration:  4418charge 0 multiplicity 1
 C        -0.010307        -0.687011        -0.150671
 C         1.259475        -0.026807        -0.084648
 C         1.766839         1.296387        -0.965936
 C         3.147344         0.861199        -0.379501
 C         4.289443         0.516702        -1.395946
 O         3.512620        -0.689738        -1.856513
 C         2.784653        -0.714601        -0.584564
 O         2.891519         1.168940         1.051802
 C         1.772878         0.341292         1.279643
 H        -0.831946         0.080139        -0.198926
 H         0.085628        -1.513059        -0.888804
 H        -0.176579        -1.268038         0.770703
 H         1.814853         1.053640        -2.042559
 H         1.248676         2.308865        -0.680716
 H         4.539017         1.181332        -2.153752
 H         5.177795         0.182888        -0.782886
 H         2.926896        -1.605223         0.159889
 H         2.200183        -0.559365         1.800900
 H         1.176233         0.850514         2.095213
