19
Iteration:   454
 C        -0.054830        -0.827749        -0.224667
 C         1.359237        -0.090177        -0.164452
 C         1.831546         1.399099        -0.563584
 C         3.227870         0.803237        -0.233117
 C         4.154621         0.748801        -1.428230
 O         3.170277        -0.228376        -2.121334
 C         2.605865        -0.596333        -0.803241
 O         3.287725         0.850655         1.193234
 C         1.870634        -0.036159         1.314954
 H        -0.491832        -0.940780         0.756830
 H        -0.728772        -0.228938        -0.834734
 H         0.096249        -1.843709        -0.665160
 H         1.484606         1.532765        -1.592950
 H         1.608164         2.216632         0.183921
 H         4.143581         1.773940        -1.988615
 H         5.146523         0.303329        -1.310689
 H         2.768482        -1.620199        -0.464796
 H         2.234777        -1.056325         1.754027
 H         1.227316         0.525540         2.063440
