19
Iteration:  2547charge 0 multiplicity 1
 C        -0.005394        -0.748411        -0.110890
 C         1.297942        -0.022034        -0.179853
 C         1.743989         1.278546        -0.976562
 C         3.130849         0.874347        -0.334409
 C         4.233200         0.502676        -1.269982
 O         3.534042        -0.688017        -1.845959
 C         2.668291        -0.645408        -0.593707
 O         3.026523         1.149068         0.984433
 C         1.795303         0.366841         1.284310
 H        -0.729905         0.069221         0.172145
 H        -0.239835        -1.108796        -1.104060
 H        -0.075272        -1.557024         0.570566
 H         1.853906         1.130828        -2.006737
 H         1.205507         2.153102        -0.668231
 H         4.541743         1.167874        -2.136997
 H         4.988954        -0.007420        -0.770569
 H         2.870470        -1.585676        -0.047211
 H         2.016655        -0.405257         2.012363
 H         0.987000         0.911826         1.761699
