19
Iteration:  2018charge 0 multiplicity 1
 C         0.058934        -0.759499        -0.293166
 C         1.371399        -0.085684        -0.115841
 C         1.838487         1.107693        -0.923067
 C         3.183496         0.689982        -0.301301
 C         4.158226         0.591556        -1.376962
 O         3.280439        -0.555881        -1.856851
 C         2.775749        -0.656711        -0.486733
 O         3.082494         1.074136         1.060149
 C         1.691679         0.574607         1.295805
 H        -0.637632        -0.010611        -0.479956
 H         0.242728        -1.577789        -1.033789
 H        -0.260255        -1.188067         0.682052
 H         1.857683         1.103205        -1.989519
 H         1.383073         2.055832        -0.559443
 H         4.513530         1.389629        -2.107072
 H         5.099432         0.119042        -1.186310
 H         3.124407        -1.551726        -0.038118
 H         1.751253        -0.131732         2.175272
 H         0.934553         1.376080         1.531258
