19
Iteration:  3987
 C        -0.040850        -0.760053        -0.276636
 C         1.275463        -0.043290        -0.173423
 C         1.659151         1.280888        -0.855460
 C         3.100049         0.883458        -0.403591
 C         4.242293         0.484099        -1.344553
 O         3.507914        -0.726168        -1.763993
 C         2.676682        -0.592190        -0.485643
 O         3.105494         1.130754         0.967418
 C         1.855008         0.402332         1.265833
 H        -0.910535        -0.414130         0.225354
 H        -0.339079        -0.787516        -1.358751
 H         0.084574        -1.795998         0.018422
 H         1.621936         1.339854        -1.940694
 H         1.331706         2.200610        -0.352713
 H         4.624634         1.210683        -2.166207
 H         4.970670         0.026167        -0.673350
 H         3.112944        -1.135921         0.410598
 H         1.968668        -0.623101         1.795647
 H         1.263449         1.064170         1.894504
