19
Iteration:  2809charge 0 multiplicity 1
 C         0.011203        -0.779367        -0.265107
 C         1.333614        -0.125029        -0.153356
 C         1.733829         1.129750        -0.963731
 C         3.228371         0.721746        -0.258992
 C         4.270895         0.485482        -1.385603
 O         3.319747        -0.441566        -1.865695
 C         2.777057        -0.692063        -0.480103
 O         3.038559         1.110602         1.072387
 C         1.753027         0.545123         1.313200
 H        -0.870009        -0.017220        -0.221385
 H         0.106209        -1.412307        -1.182897
 H        -0.319819        -1.465405         0.574904
 H         1.846491         1.018142        -2.083071
 H         1.368364         2.022140        -0.523390
 H         4.252699         1.216713        -2.355652
 H         5.341286         0.193971        -1.211777
 H         3.117493        -1.617448         0.046226
 H         1.733209        -0.102079         2.199526
 H         1.148504         1.454798         1.607765
