19
Iteration:  2868
 C        -0.052092        -0.741612        -0.179589
 C         1.305148        -0.027925        -0.198842
 C         1.742520         1.289086        -0.980679
 C         3.081625         0.795379        -0.439926
 C         4.286452         0.656032        -1.406142
 O         3.478200        -0.716415        -1.713127
 C         2.719290        -0.617071        -0.459735
 O         2.988583         1.135020         1.040422
 C         1.845184         0.263799         1.255484
 H        -0.639458        -0.089340         0.514794
 H        -0.639615        -0.631666        -1.101588
 H         0.109481        -1.794240         0.098705
 H         1.554958         1.185941        -1.980065
 H         1.713204         2.322610        -0.724268
 H         4.452893         1.038400        -2.373177
 H         5.200800         0.434230        -0.847077
 H         3.070132        -1.392292         0.207932
 H         2.125237        -0.712760         1.881023
 H         1.198218         0.948914         1.830363
