19
Iteration:   287charge 0 multiplicity 1
 C        -0.052117        -0.658920        -0.200089
 C         1.386743        -0.151043        -0.065104
 C         1.780477         1.270879        -0.543785
 C         3.250688         0.742788        -0.252605
 C         4.097121         0.848119        -1.476654
 O         3.161564        -0.037809        -2.163916
 C         2.677797        -0.562493        -0.826165
 O         3.258726         0.636303         1.179805
 C         1.878377        -0.106074         1.365764
 H        -0.057818        -1.764819        -0.404192
 H        -0.476779        -0.420372         0.773172
 H        -0.543815        -0.232704        -0.989746
 H         1.529608         1.285271        -1.590242
 H         1.509949         2.177858        -0.067046
 H         4.112780         1.828968        -2.022588
 H         5.047427         0.352842        -1.460146
 H         3.056562        -1.547369        -0.646398
 H         2.249701        -1.018808         1.857180
 H         1.372386         0.587004         2.104686
