19
Iteration:  4768
 C         0.062576        -0.685952        -0.326229
 C         1.340229        -0.066890        -0.181202
 C         1.807988         1.129212        -0.896397
 C         3.129454         0.822232        -0.331204
 C         4.201549         0.455070        -1.341968
 O         3.313300        -0.590124        -1.782973
 C         2.732417        -0.737741        -0.438677
 O         3.010600         1.284231         0.973890
 C         1.845855         0.382544         1.308493
 H        -0.616932         0.232829        -0.159135
 H        -0.103481        -1.297055        -1.245787
 H        -0.138507        -1.326421         0.507479
 H         1.796047         1.097125        -2.053084
 H         1.239864         2.024553        -0.574130
 H         4.325676         1.160801        -2.083808
 H         5.114082         0.026774        -0.820220
 H         3.022852        -1.772987        -0.124057
 H         2.278996        -0.502701         1.965502
 H         1.208114         1.097514         1.848679
