19
Iteration:  3370charge 0 multiplicity 1
 C        -0.051154        -0.753823        -0.281968
 C         1.230790        -0.042879        -0.247340
 C         1.714198         1.247292        -0.917356
 C         3.148745         0.747125        -0.347663
 C         4.211369         0.539686        -1.389773
 O         3.518105        -0.674234        -1.722358
 C         2.686770        -0.697924        -0.546009
 O         3.218744         1.098266         1.013011
 C         1.709651         0.522566         1.347714
 H        -0.888488        -0.126997         0.001132
 H        -0.339055        -1.555283        -0.904698
 H        -0.029410        -1.306672         0.628625
 H         1.427282         1.258065        -2.060883
 H         1.465806         2.258634        -0.547694
 H         4.300614         1.280565        -2.368676
 H         5.188729         0.331299        -0.894063
 H         3.092434        -1.524384         0.110024
 H         1.805336        -0.204235         2.204081
 H         1.145538         1.475734         1.598283
