19
Iteration:  1008charge 0 multiplicity 1
 C        -0.035365        -0.694231        -0.206648
 C         1.356579        -0.098498        -0.154036
 C         1.733750         1.136824        -0.801487
 C         3.198281         0.660277        -0.281355
 C         4.211550         0.628737        -1.414819
 O         3.376048        -0.418141        -1.916117
 C         2.754958        -0.708661        -0.616766
 O         3.121685         1.068218         1.124175
 C         1.739421         0.369191         1.250200
 H        -0.254488        -1.547931         0.508581
 H        -0.769715         0.181139         0.172901
 H        -0.369595        -1.045465        -1.201986
 H         1.592917         1.038292        -1.892738
 H         1.346716         2.120375        -0.387285
 H         4.331159         1.408934        -2.046507
 H         5.223119         0.114254        -1.249766
 H         3.141230        -1.612241        -0.232702
 H         1.802914        -0.412098         1.992701
 H         1.240368         1.251695         1.537392
