19
Iteration:   172charge 0 multiplicity 1
 C        -0.057984        -0.707152        -0.231176
 C         1.361373        -0.236268        -0.041218
 C         1.873326         1.385901        -0.481881
 C         3.247847         0.678918        -0.277397
 C         4.142971         0.891465        -1.498233
 O         3.061542         0.125420        -2.152609
 C         2.578959        -0.624456        -0.857834
 O         3.245796         0.622380         1.156374
 C         2.017108        -0.201728         1.392759
 H        -0.673237         0.068083        -0.683408
 H        -0.236937        -1.507622        -0.989845
 H        -0.530828        -1.042587         0.840995
 H         1.585203         1.647273        -1.498226
 H         1.740306         2.266401         0.216515
 H         4.137000         1.969938        -1.790824
 H         5.189142         0.316011        -1.450663
 H         3.059733        -1.641745        -0.743112
 H         2.298301        -1.181114         1.806615
 H         1.302195         0.325651         1.995484
