19
Iteration:  1588charge 0 multiplicity 1
 C        -0.107702        -0.775802        -0.308324
 C         1.311968        -0.066032        -0.095651
 C         1.765908         1.262451        -0.861337
 C         3.203280         0.779406        -0.336670
 C         4.258765         0.593045        -1.413148
 O         3.362837        -0.552322        -1.839840
 C         2.754339        -0.728587        -0.508440
 O         3.115236         1.069698         1.048580
 C         1.818097         0.428500         1.322101
 H        -0.096924        -1.782839        -0.845157
 H        -0.680377        -0.989587         0.643720
 H        -0.937362        -0.052570        -0.779282
 H         1.635432         1.150606        -1.906821
 H         1.354745         2.125293        -0.447894
 H         4.137581         1.452618        -2.157473
 H         5.392753         0.254559        -1.315071
 H         3.192685        -1.587140         0.082343
 H         1.959225        -0.488070         1.860060
 H         1.096997         1.145137         1.776010
