19
Iteration:  4847charge 0 multiplicity 1
 C        -0.020026        -0.714755        -0.127202
 C         1.316230        -0.107207        -0.283560
 C         1.831975         1.182823        -0.948683
 C         3.169358         0.738760        -0.306907
 C         4.242013         0.551611        -1.362615
 O         3.410813        -0.583256        -1.829967
 C         2.741795        -0.712543        -0.480807
 O         3.078012         1.102581         1.046361
 C         1.671643         0.551762         1.224211
 H        -0.771988        -0.264181         0.562383
 H        -0.652060        -0.845384        -0.986160
 H         0.182431        -1.675943         0.368346
 H         1.902418         0.894268        -2.107187
 H         1.302210         2.150040        -0.765790
 H         4.430295         1.315977        -2.085512
 H         5.225537         0.212992        -0.959558
 H         3.126928        -1.649676        -0.028431
 H         1.720992        -0.178836         2.088519
 H         1.032977         1.267973         1.704405
