19
Iteration:  1699charge 0 multiplicity 1
 C        -0.087493        -0.760616        -0.273202
 C         1.378477        -0.092149        -0.080478
 C         1.762193         1.206763        -0.915436
 C         3.178482         0.717656        -0.314346
 C         4.233452         0.558351        -1.461638
 O         3.329579        -0.529077        -1.797979
 C         2.817792        -0.679056        -0.427552
 O         3.101439         1.087192         1.036359
 C         1.733602         0.439344         1.236120
 H        -0.382071        -0.121954        -1.119029
 H        -0.015061        -1.869058        -0.543736
 H        -0.981924        -0.553886         0.493913
 H         1.853589         1.167380        -1.970462
 H         1.512000         2.152257        -0.577625
 H         4.327306         1.279612        -2.261334
 H         5.237316         0.194661        -1.038872
 H         3.126540        -1.441783         0.342534
 H         1.878044        -0.302793         1.987940
 H         1.104726         1.300538         1.544418
