19
Iteration:  3469charge 0 multiplicity 1
 C        -0.005729        -0.751398        -0.138372
 C         1.302416         0.012713        -0.157260
 C         1.674757         1.229154        -0.988769
 C         3.107000         0.817066        -0.400758
 C         4.313334         0.491944        -1.340319
 O         3.515738        -0.677411        -1.778732
 C         2.677185        -0.573667        -0.546226
 O         3.094472         1.018364         1.057147
 C         1.779676         0.500356         1.220405
 H        -0.815691        -0.173318         0.345025
 H        -0.394447        -0.964697        -1.117605
 H        -0.065861        -1.743865         0.336410
 H         1.499882         0.956615        -2.026102
 H         1.349686         2.194435        -0.572243
 H         4.376649         1.259971        -2.241124
 H         5.161900         0.164336        -0.738724
 H         3.150293        -1.324819         0.146694
 H         1.634097        -0.292521         1.967869
 H         0.919878         1.173607         1.489641
