19
Iteration:  3480
 C        -0.038909        -0.718575        -0.124530
 C         1.270980        -0.035193        -0.267370
 C         1.671353         1.246815        -0.990580
 C         3.135663         0.822638        -0.413864
 C         4.266452         0.497285        -1.386833
 O         3.540271        -0.628872        -1.750125
 C         2.687195        -0.630163        -0.453455
 O         3.169034         1.001637         1.052602
 C         1.649344         0.432204         1.245096
 H        -0.788534        -0.032240         0.299811
 H        -0.373716        -1.188647        -1.029613
 H         0.314327        -1.382449         0.648590
 H         1.612119         1.224732        -2.075342
 H         1.281252         2.244739        -0.682880
 H         4.559655         1.171353        -2.327131
 H         5.256929         0.387408        -0.958377
 H         3.111622        -1.293138         0.350753
 H         1.641652        -0.424158         1.929985
 H         1.089498         1.361750         1.531543
