19
Iteration:  3297
 C        -0.048608        -0.688062        -0.254530
 C         1.309844        -0.035518        -0.120248
 C         1.756723         1.172520        -0.917813
 C         3.129741         0.796082        -0.391511
 C         4.240482         0.524282        -1.339591
 O         3.442647        -0.689489        -1.752115
 C         2.756571        -0.666701        -0.526286
 O         3.084144         1.198692         0.958165
 C         1.768118         0.424106         1.318122
 H        -0.925814        -0.074650         0.064974
 H        -0.193971        -1.209273        -1.211497
 H        -0.173663        -1.646967         0.342110
 H         1.514200         1.156509        -1.998616
 H         1.507950         2.191197        -0.627368
 H         4.351977         1.218262        -2.101311
 H         5.194926         0.150323        -0.965945
 H         2.955280        -1.511536         0.105945
 H         2.111794        -0.390254         1.952208
 H         1.032457         1.072210         1.754713
