19
Iteration:  3477
 C        -0.026977        -0.724417        -0.126897
 C         1.274354        -0.028071        -0.250369
 C         1.657320         1.247655        -0.985570
 C         3.128112         0.815473        -0.418398
 C         4.280602         0.481461        -1.392874
 O         3.542882        -0.621945        -1.749700
 C         2.670572        -0.614005        -0.469203
 O         3.166403         1.003181         1.056262
 C         1.682096         0.445566         1.249756
 H        -0.844772        -0.023748         0.310547
 H        -0.421201        -1.110571        -1.127722
 H         0.350126        -1.456802         0.642875
 H         1.546465         1.074828        -2.128644
 H         1.370564         2.186511        -0.619428
 H         4.516147         1.123723        -2.237320
 H         5.243845         0.392985        -0.894700
 H         3.150148        -1.245829         0.340012
 H         1.527844        -0.410897         1.879976
 H         0.979955         1.301584         1.480978
