19
Iteration:   502charge 0 multiplicity 1
 C        -0.057987        -0.685874        -0.335726
 C         1.380866        -0.174793        -0.063962
 C         1.646995         1.293392        -0.563140
 C         3.149852         0.820582        -0.296250
 C         4.152223         0.757273        -1.463808
 O         3.176468        -0.282621        -2.063530
 C         2.722090        -0.541515        -0.761905
 O         3.291416         0.811739         1.147471
 C         1.955489         0.006072         1.387584
 H        -0.267775        -1.752108        -0.150579
 H        -0.720850        -0.098794         0.316572
 H        -0.213306        -0.447956        -1.395342
 H         1.633504         1.417249        -1.683387
 H         1.255082         2.144647         0.093614
 H         4.394284         1.534930        -2.096680
 H         5.023044         0.246029        -1.076935
 H         3.154047        -1.512134        -0.371576
 H         2.280492        -0.924520         1.984153
 H         1.334853         0.646890         2.029176
