19
Iteration:  1512charge 0 multiplicity 1
 C        -0.043133        -0.777510        -0.227577
 C         1.347257        -0.113592        -0.191599
 C         1.698418         1.224525        -0.908958
 C         3.210438         0.793700        -0.265575
 C         4.253830         0.506472        -1.296612
 O         3.308998        -0.552436        -1.908817
 C         2.762558        -0.675251        -0.558552
 O         3.059604         1.207321         1.061549
 C         1.883397         0.378886         1.282655
 H        -0.347165        -0.903564        -1.323594
 H        -0.181057        -1.637345         0.447810
 H        -0.830432         0.089110        -0.040470
 H         1.661417         1.331756        -2.003132
 H         1.116133         2.115798        -0.582771
 H         4.639499         1.243716        -1.928315
 H         5.028384        -0.119408        -0.692606
 H         3.004124        -1.718015        -0.105140
 H         2.307216        -0.489775         1.775240
 H         1.106037         0.988947         1.832393
