19
Iteration:   879charge 0 multiplicity 1
 C        -0.055706        -0.727077        -0.168742
 C         1.327024        -0.088406        -0.166889
 C         1.823994         1.247514        -0.746319
 C         3.191133         0.720624        -0.258059
 C         4.110891         0.673170        -1.421803
 O         3.370675        -0.471807        -2.029180
 C         2.800558        -0.688994        -0.659501
 O         3.165552         0.952578         1.128029
 C         1.682459         0.318995         1.274820
 H        -0.650771         0.091402        -0.543667
 H        -0.103167        -1.601926        -0.822468
 H        -0.499978        -0.947269         0.724857
 H         1.902473         1.317893        -1.813701
 H         1.574148         2.132142        -0.235027
 H         4.158967         1.628941        -2.055381
 H         5.087615         0.399988        -0.980477
 H         3.293017        -1.570816        -0.194370
 H         1.720108        -0.360166         2.145996
 H         1.130408         1.161595         1.773906
