19
Iteration:  1263charge 0 multiplicity 1
 C         0.107563        -0.763811        -0.243446
 C         1.314047         0.008346        -0.166439
 C         1.688047         1.275429        -0.918191
 C         3.153770         0.828986        -0.277766
 C         4.196439         0.497494        -1.346524
 O         3.360312        -0.627673        -1.818868
 C         2.653965        -0.565869        -0.568999
 O         3.141556         1.081589         1.049448
 C         1.748723         0.339838         1.256612
 H        -0.370150        -0.562092        -1.220708
 H         0.459430        -1.875477        -0.303915
 H        -0.505871        -0.610594         0.661485
 H         1.697986         1.261624        -2.024811
 H         1.337482         2.266383        -0.447943
 H         4.495339         1.191276        -2.161928
 H         5.077855        -0.043174        -0.801319
 H         3.017693        -1.443427        -0.024313
 H         2.013136        -0.571263         1.799728
 H         1.147436         1.103575         1.841580
