19
Iteration:  1069
 C        -0.044511        -0.775841        -0.261331
 C         1.318329        -0.076277        -0.208754
 C         1.713548         1.372988        -0.859463
 C         3.142674         0.835828        -0.324280
 C         4.238998         0.547497        -1.425539
 O         3.380368        -0.622308        -1.865171
 C         2.671426        -0.637631        -0.590907
 O         3.111226         1.118654         1.121390
 C         1.911366         0.257057         1.379994
 H         0.107149        -1.794145        -0.617795
 H        -0.614780        -0.713081         0.637000
 H        -0.608144        -0.204032        -1.043668
 H         1.654608         1.310054        -1.951572
 H         1.262291         2.283657        -0.486515
 H         4.424732         1.349951        -2.308454
 H         5.102756         0.207601        -0.897576
 H         2.934517        -1.570239         0.017360
 H         1.986388        -0.658372         2.012774
 H         1.220070         0.985307         1.853512
