19
Iteration:  2630charge 0 multiplicity 1
 C         0.006559        -0.772868        -0.393678
 C         1.310155        -0.045617        -0.081224
 C         1.827070         1.204853        -0.871941
 C         3.142220         0.827457        -0.366908
 C         4.207301         0.487559        -1.355908
 O         3.291965        -0.617329        -1.774053
 C         2.728426        -0.653438        -0.461722
 O         3.082193         1.227446         0.981297
 C         1.809760         0.353361         1.348820
 H        -0.880052        -0.194815        -0.329185
 H        -0.079561        -1.188493        -1.434610
 H        -0.145391        -1.603291         0.357506
 H         1.633078         1.071234        -1.934058
 H         1.599579         2.276948        -0.654399
 H         4.442340         1.124804        -2.178804
 H         5.229971         0.113267        -1.025963
 H         3.241005        -1.383009         0.187831
 H         2.249935        -0.398716         1.946861
 H         1.093535         1.030362         1.773704
