19
Iteration:   712charge 0 multiplicity 1
 C        -0.008676        -0.680537        -0.163170
 C         1.340933        -0.087942        -0.173765
 C         1.687185         1.258943        -0.737662
 C         3.185273         0.840933        -0.309879
 C         4.303150         0.566261        -1.343266
 O         3.249546        -0.296272        -1.979224
 C         2.652651        -0.625858        -0.689364
 O         3.098300         0.998428         1.107997
 C         1.943870         0.066113         1.246431
 H        -0.471816        -0.973487         0.768753
 H        -0.731394         0.028484        -0.630127
 H        -0.047565        -1.539208        -0.718845
 H         1.485871         1.340963        -1.814466
 H         1.225625         2.065006        -0.120751
 H         4.573797         1.264373        -2.062996
 H         5.234210        -0.011497        -0.974975
 H         3.081817        -1.559987        -0.328511
 H         2.372185        -0.927720         1.695024
 H         1.210744         0.455795         1.999728
