19
Iteration:  4296
 C         0.017820        -0.780439        -0.229395
 C         1.265600         0.030565        -0.071812
 C         1.713262         1.254904        -0.997574
 C         3.112479         0.836038        -0.352249
 C         4.262872         0.507964        -1.389809
 O         3.498925        -0.664319        -1.826300
 C         2.657924        -0.598379        -0.509415
 O         3.087659         1.062020         1.065250
 C         1.724080         0.446818         1.287197
 H        -0.925756        -0.446744         0.197827
 H        -0.155722        -1.018579        -1.261647
 H         0.353708        -1.721572         0.346330
 H         1.619324         1.002220        -2.160782
 H         1.451103         2.235661        -0.546091
 H         4.598523         1.146887        -2.214743
 H         5.165984         0.046695        -0.953707
 H         3.231224        -1.334962         0.238022
 H         1.965918        -0.447650         1.914917
 H         1.014374         1.228987         1.604641
