19
Iteration:  3334charge 0 multiplicity 1
 C        -0.068637        -0.633552        -0.134890
 C         1.365914        -0.059577        -0.118759
 C         1.765797         1.093342        -1.023167
 C         3.150961         0.760855        -0.355509
 C         4.340643         0.476340        -1.345326
 O         3.391771        -0.546978        -1.846733
 C         2.810376        -0.664682        -0.547085
 O         2.966799         1.190192         1.003879
 C         1.705815         0.386201         1.341760
 H        -0.812530         0.171606        -0.313741
 H        -0.240357        -1.323606        -0.997577
 H        -0.067045        -1.038495         0.881676
 H         1.638445         0.696869        -1.998888
 H         1.556005         2.143468        -0.833509
 H         4.701094         1.196768        -2.141274
 H         5.243332        -0.071477        -0.912272
 H         3.275474        -1.536175        -0.003025
 H         1.886721        -0.460318         1.990213
 H         0.981520         1.049279         1.837434
