19
Iteration:   727charge 0 multiplicity 1
 C        -0.129321        -0.757212        -0.182988
 C         1.356445        -0.073928        -0.103436
 C         1.772688         1.408145        -0.709346
 C         3.109041         0.810766        -0.343410
 C         4.172254         0.609634        -1.412176
 O         3.402607        -0.405116        -2.062971
 C         2.715928        -0.582015        -0.682480
 O         3.082072         0.943948         1.103843
 C         1.911559         0.074604         1.362200
 H        -0.226509        -1.240803         0.803702
 H        -0.862014         0.038827        -0.272720
 H        -0.102888        -1.509802        -1.027115
 H         1.601926         1.453195        -1.774798
 H         1.606192         2.338242        -0.240475
 H         4.606341         1.435957        -2.058822
 H         4.963706         0.121639        -0.944323
 H         3.121027        -1.512860        -0.210193
 H         2.189508        -0.896131         1.805685
 H         1.197275         0.694759         1.947011
