19
Iteration:  4221charge 0 multiplicity 1
 C        -0.094662        -0.688044        -0.236223
 C         1.282964        -0.033516        -0.150856
 C         1.765770         1.307981        -0.891531
 C         3.125907         0.851709        -0.424014
 C         4.263361         0.478502        -1.437850
 O         3.514048        -0.736079        -1.836152
 C         2.753854        -0.622199        -0.507839
 O         2.982084         1.186244         1.101371
 C         1.824787         0.305225         1.333722
 H        -1.048249        -0.136959        -0.406057
 H         0.055692        -1.178612        -1.200237
 H        -0.131272        -1.408716         0.643873
 H         1.578958         1.065148        -2.007340
 H         1.226550         2.196359        -0.648742
 H         4.374522         1.241873        -2.218918
 H         5.335360         0.290467        -0.925574
 H         3.284798        -1.373311         0.136563
 H         2.003848        -0.620764         2.048959
 H         1.073038         0.948212         1.939351
