19
Iteration:  2316
 C         0.052450        -0.737501        -0.361548
 C         1.340333        -0.059827        -0.078602
 C         1.723063         1.144734        -0.937189
 C         3.188179         0.830688        -0.355071
 C         4.236005         0.420220        -1.267252
 O         3.262502        -0.568259        -1.825045
 C         2.746162        -0.687025        -0.442411
 O         3.091658         1.223789         0.960228
 C         1.820543         0.430004         1.334479
 H        -0.802822        -0.509156         0.339815
 H        -0.054341        -0.554391        -1.456879
 H         0.235621        -1.806876        -0.273047
 H         1.320341         1.112337        -2.032091
 H         1.350614         2.246237        -0.597182
 H         4.324057         1.141214        -2.168521
 H         5.145401         0.014662        -0.847561
 H         3.210230        -1.480676         0.191286
 H         2.059486        -0.318241         2.021532
 H         1.016686         0.997432         1.782047
