19
Iteration:  1538charge 0 multiplicity 1
 C         0.000518        -0.755309        -0.228205
 C         1.255689        -0.032993        -0.091521
 C         1.782913         1.213432        -0.933970
 C         3.178014         0.739753        -0.371315
 C         4.252557         0.562732        -1.425217
 O         3.396272        -0.537625        -1.877601
 C         2.686267        -0.632329        -0.487458
 O         3.071062         1.074163         1.070145
 C         1.800127         0.358266         1.340715
 H         0.046960        -1.404087        -1.054400
 H        -0.373846        -1.286502         0.700929
 H        -0.747158        -0.107995        -0.541521
 H         1.661224         1.277325        -2.066124
 H         1.540441         2.326863        -0.511849
 H         4.373878         1.339263        -2.225807
 H         5.166155         0.314146        -0.912133
 H         3.046886        -1.555152         0.020981
 H         2.040206        -0.587896         1.940167
 H         1.049215         1.077718         1.763673
