19
Iteration:  2768charge 0 multiplicity 1
 C         0.018704        -0.816808        -0.327169
 C         1.348019         0.032512        -0.165168
 C         1.690099         1.351677        -0.892787
 C         3.128706         0.763089        -0.358132
 C         4.193192         0.473390        -1.448183
 O         3.411601        -0.646381        -1.703123
 C         2.727506        -0.623349        -0.464851
 O         3.036589         1.086269         1.039332
 C         1.853636         0.399160         1.298591
 H        -0.904082        -0.142325        -0.464484
 H         0.298026        -1.337945        -1.246045
 H        -0.203068        -1.363650         0.558454
 H         1.512272         1.362059        -1.991443
 H         1.415989         2.305254        -0.506828
 H         4.370254         1.202862        -2.255638
 H         5.175510         0.223638        -1.097424
 H         3.192620        -1.407849         0.132035
 H         2.114933        -0.542754         1.940665
 H         1.090386         1.125700         1.679444
