19
Iteration:   461
 C        -0.026861        -0.820502        -0.267246
 C         1.344459        -0.115648        -0.134297
 C         1.829459         1.377765        -0.596273
 C         3.200905         0.792338        -0.211537
 C         4.160014         0.737327        -1.409672
 O         3.120836        -0.201054        -2.109703
 C         2.613420        -0.611538        -0.822036
 O         3.221932         0.871837         1.182621
 C         1.987548        -0.019066         1.379465
 H        -0.534525        -1.036491         0.759497
 H        -0.622462        -0.011072        -0.781656
 H         0.029974        -1.671700        -0.909920
 H         1.550706         1.557812        -1.612414
 H         1.569153         2.144248         0.045181
 H         4.365365         1.621469        -2.068941
 H         5.147521         0.168490        -1.276225
 H         2.928438        -1.666198        -0.642616
 H         2.183095        -0.947286         1.785507
 H         1.342516         0.448522         2.101227
