19
Iteration:  1919charge 0 multiplicity 1
 C        -0.067350        -0.697521        -0.146555
 C         1.332484        -0.107034        -0.120107
 C         1.786398         1.120165        -0.943777
 C         3.228461         0.745743        -0.325900
 C         4.277931         0.593135        -1.394589
 O         3.451464        -0.612542        -1.915363
 C         2.763677        -0.702227        -0.497026
 O         2.992175         1.130730         1.080202
 C         1.685600         0.488380         1.270884
 H        -0.740423        -0.345635         0.645108
 H        -0.531926        -0.180022        -1.078419
 H        -0.039543        -1.835412        -0.287630
 H         1.686271         1.042381        -2.011281
 H         1.548094         2.102697        -0.669477
 H         4.512412         1.293399        -2.312808
 H         5.209588         0.086542        -0.974369
 H         3.263544        -1.507258         0.053085
 H         1.624056        -0.226076         2.175531
 H         1.038909         1.408179         1.538477
