19
Iteration:  3208charge 0 multiplicity 1
 C        -0.044060        -0.757610        -0.164111
 C         1.276033        -0.064917        -0.134281
 C         1.750086         1.197779        -1.004223
 C         3.127661         0.769515        -0.411591
 C         4.324220         0.433680        -1.326536
 O         3.465525        -0.597953        -1.897689
 C         2.640433        -0.675188        -0.472145
 O         3.012327         1.293828         1.012494
 C         1.818372         0.394466         1.367611
 H        -0.678588         0.113748         0.151133
 H        -0.048602        -0.928142        -1.252392
 H        -0.191803        -1.703471         0.408707
 H         1.959609         0.931567        -2.100048
 H         1.387393         2.181184        -0.744302
 H         4.633241         1.221928        -1.991968
 H         5.130126         0.001136        -0.763041
 H         2.941751        -1.516861         0.143758
 H         2.200950        -0.462145         1.914397
 H         1.057704         0.882372         1.965651
