19
Iteration:  2789charge 0 multiplicity 1
 C         0.033038        -0.828403        -0.330441
 C         1.381217        -0.054752        -0.118927
 C         1.866711         1.218114        -0.907716
 C         3.160320         0.849867        -0.328327
 C         4.179641         0.585229        -1.386537
 O         3.316217        -0.688074        -1.882907
 C         2.691121        -0.637529        -0.480775
 O         3.122475         1.143111         1.137880
 C         1.668662         0.455911         1.295212
 H        -0.854210        -0.089405        -0.373185
 H         0.217299        -1.540560        -1.153654
 H        -0.184833        -1.215816         0.651126
 H         1.769532         0.985465        -1.981161
 H         1.384015         2.086015        -0.641587
 H         4.379364         1.405327        -2.167612
 H         5.103255         0.094399        -1.221937
 H         3.188615        -1.477015         0.007956
 H         1.908244        -0.450129         1.971869
 H         1.053903         1.281770         1.752551
