19
Iteration:  2727
 C        -0.060279        -0.673772        -0.252502
 C         1.338881        -0.144586        -0.100669
 C         1.777724         1.182956        -0.989781
 C         3.100329         0.821551        -0.374366
 C         4.221764         0.543094        -1.317044
 O         3.447710        -0.578769        -1.832282
 C         2.759689        -0.758229        -0.491829
 O         3.012908         1.140777         1.017665
 C         1.851466         0.435825         1.319228
 H        -0.811929        -0.075918         0.261059
 H        -0.448699        -0.683283        -1.282210
 H        -0.135589        -1.686675         0.171568
 H         1.524485         1.074530        -2.071076
 H         1.317321         2.252991        -0.728803
 H         4.424084         1.299184        -2.027148
 H         5.209541         0.081655        -0.885554
 H         3.227541        -1.432613         0.242471
 H         2.098523        -0.413835         1.983692
 H         1.106241         1.129973         1.682661
