19
Iteration:   984
 C        -0.022428        -0.771232        -0.179624
 C         1.382832        -0.106931        -0.153828
 C         1.907556         1.239823        -0.895579
 C         3.148852         0.824539        -0.358997
 C         4.197108         0.639154        -1.394763
 O         3.291900        -0.460405        -1.951128
 C         2.710362        -0.642360        -0.576469
 O         3.073788         0.894266         1.143943
 C         1.754196         0.412146         1.337222
 H        -0.340311        -1.224613         0.771820
 H        -0.814738        -0.042301        -0.441356
 H        -0.039761        -1.623061        -0.918956
 H         1.867422         1.116890        -2.020061
 H         1.492479         2.259354        -0.566222
 H         4.404912         1.483744        -1.955311
 H         5.130783         0.119942        -1.092400
 H         3.132848        -1.542188        -0.149584
 H         1.931894        -0.437415         2.032727
 H         1.193452         1.226005         1.747650
