19
Iteration:  2337
 C         0.002938        -0.813129        -0.356082
 C         1.317629        -0.065223        -0.102564
 C         1.793218         1.267726        -0.883341
 C         3.211047         0.837445        -0.351155
 C         4.186870         0.527696        -1.439953
 O         3.380066        -0.695000        -1.791809
 C         2.683106        -0.687094        -0.468026
 O         3.077642         1.176539         1.065375
 C         1.803421         0.475941         1.332609
 H        -0.813586        -0.304144         0.246988
 H        -0.354986        -0.744523        -1.438677
 H        -0.007476        -1.896631        -0.060660
 H         1.777992         1.140905        -2.034714
 H         1.207099         2.259622        -0.599826
 H         4.295149         1.266692        -2.360430
 H         5.124901         0.099098        -1.046590
 H         3.155794        -1.508371         0.139152
 H         1.978606        -0.285049         2.049095
 H         1.091089         1.168922         1.785984
