19
Iteration:   165
 C        -0.124167        -0.716376        -0.264768
 C         1.331134        -0.177247        -0.066019
 C         1.849183         1.319384        -0.397817
 C         3.212327         0.754856        -0.249527
 C         4.148429         0.867027        -1.506669
 O         3.099968         0.068581        -2.157706
 C         2.577954        -0.533822        -0.838126
 O         3.268276         0.635153         1.134908
 C         2.074934        -0.242263         1.385567
 H        -0.768313        -0.075136        -0.893225
 H        -0.032858        -1.683446        -0.801025
 H        -0.607103        -0.781178         0.688907
 H         1.557950         1.581700        -1.400649
 H         1.697471         2.150840         0.213557
 H         4.331804         1.840402        -1.896779
 H         5.104228         0.378371        -1.445023
 H         2.874836        -1.599137        -0.959191
 H         2.411792        -1.246957         1.803848
 H         1.452093         0.342885         2.128133
