19
Iteration:  4244
 C        -0.024903        -0.623189        -0.204893
 C         1.352903        -0.161673        -0.130344
 C         1.787431         1.082442        -0.990548
 C         3.178278         0.758613        -0.251436
 C         4.237422         0.594203        -1.399035
 O         3.394670        -0.546429        -1.844370
 C         2.783540        -0.689813        -0.436389
 O         2.989075         1.151677         1.036085
 C         1.760052         0.379137         1.238827
 H        -0.590537         0.361949        -0.259784
 H        -0.294899        -1.059765        -1.189669
 H        -0.284276        -1.108034         0.759150
 H         1.714984         0.852264        -2.089363
 H         1.407308         2.082243        -0.800252
 H         4.299425         1.222489        -2.294772
 H         5.359722         0.317630        -1.037766
 H         3.240145        -1.585669         0.001595
 H         1.895524        -0.492938         2.014253
 H         0.969712         1.069274         1.747791
