19
Iteration:  2852
 C        -0.056534        -0.720193        -0.161713
 C         1.261656        -0.034023        -0.197552
 C         1.687389         1.244263        -0.968270
 C         3.148492         0.885503        -0.373334
 C         4.280576         0.476848        -1.378567
 O         3.556368        -0.651359        -1.782827
 C         2.689235        -0.614958        -0.555058
 O         3.044276         1.122459         1.035334
 C         1.814294         0.361566         1.313422
 H        -0.834487        -0.163869         0.443888
 H        -0.550524        -0.979859        -1.110404
 H         0.028887        -1.750122         0.258422
 H         1.678456         1.088906        -2.103826
 H         1.061576         2.089629        -0.614121
 H         4.408532         1.362912        -2.132039
 H         5.274232         0.204444        -0.953398
 H         3.083534        -1.428844         0.102847
 H         2.047754        -0.546791         1.802187
 H         1.050666         0.822732         1.947345
