19
Iteration:  4042
 C        -0.038291        -0.764807        -0.218583
 C         1.411423        -0.084584        -0.118523
 C         1.891893         1.169192        -1.000575
 C         3.246372         0.753671        -0.241410
 C         4.242231         0.568246        -1.443708
 O         3.263631        -0.542451        -1.862284
 C         2.777739        -0.701507        -0.510117
 O         3.012596         1.155274         1.101773
 C         1.654796         0.438843         1.294921
 H        -0.756880         0.009980        -0.145454
 H        -0.092614        -1.287339        -1.191098
 H        -0.153463        -1.435785         0.606018
 H         1.830674         0.729031        -1.941997
 H         1.619867         2.231193        -0.829005
 H         4.510808         1.384115        -2.232650
 H         5.218186         0.082714        -1.256549
 H         3.156728        -1.554166         0.169478
 H         1.786938        -0.333154         2.148314
 H         0.975624         1.243901         1.530536
