19
Iteration:  3271charge 0 multiplicity 1
 C         0.018415        -0.810309        -0.307909
 C         1.256778         0.042715        -0.114708
 C         1.704695         1.293551        -0.885747
 C         3.113027         0.772593        -0.383794
 C         4.183623         0.514384        -1.445634
 O         3.535400        -0.742332        -1.813634
 C         2.665542        -0.647298        -0.415908
 O         3.121972         1.047593         1.094611
 C         1.807262         0.596982         1.314766
 H        -0.903498        -0.508953         0.224270
 H        -0.336727        -0.953756        -1.330142
 H         0.084847        -1.831873        -0.049786
 H         1.809154         0.964078        -2.011616
 H         1.335546         2.351489        -1.037395
 H         4.247047         1.278994        -2.354863
 H         5.210268         0.320924        -1.222139
 H         2.927603        -1.447627         0.342163
 H         1.801688        -0.252178         2.077180
 H         1.075074         1.460854         1.572554
