19
Iteration:   586
 C        -0.046080        -0.684197        -0.239940
 C         1.389615        -0.209582        -0.047988
 C         1.696438         1.217259        -0.611668
 C         3.157575         0.814460        -0.284483
 C         4.220448         0.607365        -1.321497
 O         3.200512        -0.151088        -2.059870
 C         2.665487        -0.622719        -0.841638
 O         3.185082         0.929044         1.089363
 C         1.990973         0.064649         1.312404
 H        -0.218381        -0.839052        -1.287613
 H        -0.231927        -1.665968         0.249675
 H        -0.827505        -0.035367         0.350705
 H         1.483733         1.282247        -1.692129
 H         1.263635         2.100096        -0.078769
 H         4.543692         1.584473        -1.930140
 H         5.058434        -0.050092        -0.905130
 H         3.005500        -1.626675        -0.567816
 H         2.352484        -0.790532         1.905392
 H         1.261277         0.775877         1.725568
