19
Iteration:  2390
 C        -0.063141        -0.663748        -0.147257
 C         1.297123        -0.135857        -0.146023
 C         1.723207         1.154217        -0.984035
 C         3.139312         0.752485        -0.353896
 C         4.242025         0.558673        -1.316412
 O         3.476936        -0.581727        -1.825235
 C         2.722658        -0.663257        -0.580476
 O         3.058910         1.139240         1.021578
 C         1.808285         0.398637         1.285003
 H        -0.730883         0.154596        -0.077009
 H        -0.182924        -1.403624        -0.976749
 H        -0.358585        -1.195516         0.823500
 H         1.743016         1.173254        -2.082295
 H         1.476106         2.145454        -0.790193
 H         4.450374         1.362299        -2.099305
 H         5.150537         0.069956        -0.943114
 H         3.281283        -1.462595        -0.000289
 H         1.859347        -0.324868         2.137762
 H         1.060305         1.166214         1.610927
