19
Iteration:  1065charge 0 multiplicity 1
 C        -0.052594        -0.767580        -0.268202
 C         1.317148        -0.057078        -0.181400
 C         1.709399         1.347326        -0.848764
 C         3.147355         0.865479        -0.339347
 C         4.251631         0.548108        -1.429046
 O         3.392427        -0.613056        -1.844081
 C         2.656244        -0.615854        -0.581091
 O         3.112803         1.112010         1.106635
 C         1.907989         0.222921         1.343841
 H         0.209739        -1.821338        -0.607058
 H        -0.787509        -0.685890         0.702890
 H        -0.609693        -0.181026        -1.023138
 H         1.688579         1.255540        -1.926491
 H         1.166996         2.201623        -0.457990
 H         4.424907         1.144593        -2.330368
 H         5.215344         0.251950        -0.918133
 H         2.809632        -1.544834        -0.028573
 H         2.051387        -0.644268         1.977996
 H         1.258417         0.944208         1.888934
