19
Iteration:  3301
 C        -0.077799        -0.693093        -0.249360
 C         1.341592        -0.054263        -0.136186
 C         1.735423         1.201241        -0.891691
 C         3.114909         0.791751        -0.350024
 C         4.262408         0.523559        -1.340322
 O         3.412176        -0.682867        -1.753522
 C         2.780709        -0.691799        -0.555333
 O         3.055279         1.226878         0.969449
 C         1.806976         0.415815         1.273047
 H        -0.816036         0.063133         0.064040
 H        -0.198063        -1.235117        -1.222689
 H        -0.211449        -1.575084         0.436865
 H         1.672258         0.941365        -1.930703
 H         1.443684         2.231792        -0.664834
 H         4.425018         1.205700        -2.230325
 H         5.202417         0.044733        -0.865966
 H         3.076136        -1.533714         0.131778
 H         2.072227        -0.403503         1.945351
 H         1.038937         1.063166         1.709572
