19
Iteration:  1801charge 0 multiplicity 1
 C        -0.058418        -0.688951        -0.185139
 C         1.366219        -0.101518        -0.109467
 C         1.861624         1.142121        -0.963227
 C         3.123176         0.704662        -0.281906
 C         4.276628         0.619970        -1.435429
 O         3.436351        -0.577843        -1.896969
 C         2.726240        -0.733945        -0.462087
 O         3.022072         1.096907         1.049981
 C         1.691952         0.516005         1.279955
 H        -0.801074         0.079662         0.067704
 H        -0.389463        -0.946472        -1.215162
 H        -0.043261        -1.581105         0.447868
 H         1.676802         0.918161        -2.016916
 H         1.491871         2.130198        -0.657429
 H         4.397049         1.401848        -2.074057
 H         5.221292         0.078130        -1.110883
 H         3.135884        -1.540704         0.165165
 H         1.847851        -0.222920         2.021963
 H         1.035063         1.297135         1.640449
