19
Iteration:   396charge 0 multiplicity 1
 C        -0.155303        -0.646326        -0.220246
 C         1.323148        -0.104112        -0.074526
 C         1.687092         1.222600        -0.551389
 C         3.162096         0.743623        -0.271571
 C         4.112304         0.808516        -1.429949
 O         3.266960        -0.104594        -2.142596
 C         2.729221        -0.631495        -0.794827
 O         3.301035         0.695633         1.125885
 C         1.984312        -0.005199         1.374531
 H        -0.951377         0.123047        -0.518718
 H        -0.160499        -1.445655        -0.996391
 H        -0.599614        -1.160665         0.590387
 H         1.582996         1.416236        -1.583332
 H         1.294642         1.997255        -0.018392
 H         4.234666         1.817136        -2.000699
 H         5.190233         0.372230        -1.248904
 H         3.204325        -1.557404        -0.463721
 H         2.212573        -0.948354         1.797171
 H         1.547268         0.700529         2.149378
