19
Iteration:  2436charge 0 multiplicity 1
 C         0.029569        -0.749477        -0.233680
 C         1.367665        -0.022105        -0.182846
 C         1.771200         1.241487        -0.909997
 C         3.133331         0.789779        -0.358348
 C         4.256930         0.479114        -1.322965
 O         3.372058        -0.614883        -1.815367
 C         2.704212        -0.652001        -0.531860
 O         3.034488         1.157935         0.996644
 C         1.794469         0.410446         1.310927
 H        -0.755939        -0.049667        -0.050866
 H        -0.097086        -1.335801        -1.155926
 H        -0.275607        -1.428528         0.565538
 H         1.524917         1.065041        -1.953787
 H         1.277746         2.155214        -0.702641
 H         4.427111         1.173275        -2.235884
 H         5.150213         0.069706        -0.827783
 H         3.154399        -1.386534         0.177763
 H         2.087047        -0.439589         1.930165
 H         1.069079         0.946522         1.925101
