19
Iteration:   935charge 0 multiplicity 1
 C        -0.045958        -0.756239        -0.331030
 C         1.297893        -0.065017        -0.110855
 C         1.743535         1.357986        -0.718312
 C         3.079693         0.892422        -0.401052
 C         4.195706         0.481524        -1.349232
 O         3.372738        -0.541826        -1.893392
 C         2.662793        -0.606717        -0.617986
 O         3.119404         1.047667         1.046772
 C         1.927362         0.180148         1.334988
 H        -0.797067        -0.610530         0.425755
 H        -0.499741        -0.454838        -1.240296
 H         0.168692        -1.768765        -0.384487
 H         1.651965         1.426268        -1.779879
 H         1.578720         2.287773        -0.257328
 H         4.494147         1.258980        -2.204604
 H         5.005391         0.369253        -0.648911
 H         3.213109        -1.393548        -0.000385
 H         2.461989        -0.545093         1.958098
 H         1.265722         0.947329         1.826015
