19
Iteration:   395
 C        -0.163834        -0.646626        -0.227055
 C         1.326714        -0.108318        -0.073100
 C         1.692426         1.223773        -0.554700
 C         3.170178         0.742697        -0.281405
 C         4.114969         0.806235        -1.424781
 O         3.254776        -0.100708        -2.135100
 C         2.733893        -0.636151        -0.795106
 O         3.293744         0.704912         1.127320
 C         1.996070        -0.002937         1.374197
 H        -0.961953         0.123341        -0.549946
 H        -0.178398        -1.466898        -0.991703
 H        -0.617398        -1.151374         0.616980
 H         1.589627         1.430796        -1.597750
 H         1.299920         1.989686         0.025697
 H         4.230285         1.801720        -1.968257
 H         5.201676         0.364990        -1.257779
 H         3.211630        -1.590348        -0.500781
 H         2.237726        -0.931275         1.797574
 H         1.523013         0.641221         2.157494
