19
Iteration:  3243
 C         0.069050        -0.785544        -0.266319
 C         1.366166        -0.099779        -0.152954
 C         1.790108         1.230746        -0.942183
 C         3.167211         0.751015        -0.350741
 C         4.214277         0.492455        -1.429673
 O         3.320938        -0.617801        -1.805069
 C         2.749273        -0.674140        -0.340002
 O         3.092481         1.133094         1.046733
 C         1.699999         0.544342         1.227288
 H        -0.737935        -0.334073         0.353591
 H        -0.430203        -0.571020        -1.230783
 H        -0.017184        -1.889635        -0.002667
 H         1.810158         1.293163        -2.021004
 H         1.370597         2.144670        -0.592274
 H         4.389688         1.156389        -2.228826
 H         5.224077         0.099264        -1.077212
 H         3.173870        -1.384288         0.361853
 H         1.653368        -0.195705         2.004928
 H         1.031757         1.346096         1.453143
