19
Iteration:  3119
 C         0.036922        -0.761668        -0.307257
 C         1.353022        -0.104324        -0.192438
 C         1.793431         1.109592        -0.963755
 C         3.164189         0.760886        -0.301092
 C         4.197119         0.473373        -1.372211
 O         3.299568        -0.571684        -1.819931
 C         2.733450        -0.646051        -0.435329
 O         3.057945         1.217643         1.036045
 C         1.840038         0.467864         1.349722
 H        -0.857061        -0.043337        -0.214865
 H        -0.112661        -1.080151        -1.354921
 H        -0.242848        -1.487185         0.466426
 H         1.877561         1.012696        -2.070848
 H         1.373199         2.024460        -0.463724
 H         4.204440         1.413610        -2.021560
 H         5.172785         0.097986        -1.065007
 H         3.219974        -1.477960         0.093755
 H         1.879241        -0.234621         2.164484
 H         1.101137         1.264927         1.508557
