19
Iteration:  3476charge 0 multiplicity 1
 C        -0.024247        -0.725968        -0.127841
 C         1.276676        -0.023486        -0.242288
 C         1.655627         1.245404        -0.986858
 C         3.124740         0.813829        -0.417781
 C         4.285257         0.480420        -1.394159
 O         3.542050        -0.623721        -1.750916
 C         2.667800        -0.608639        -0.475671
 O         3.162489         1.004085         1.057079
 C         1.694564         0.453714         1.248160
 H        -0.843645        -0.040624         0.305059
 H        -0.431020        -1.085902        -1.141030
 H         0.331950        -1.496004         0.630829
 H         1.531355         1.032134        -2.120367
 H         1.385195         2.190502        -0.590140
 H         4.487320         1.109187        -2.203850
 H         5.252327         0.375791        -0.857995
 H         3.152811        -1.228175         0.313626
 H         1.499982        -0.413208         1.883772
 H         0.957339         1.263556         1.467362
