19
Iteration:   533charge 0 multiplicity 1
 C        -0.009242        -0.783835        -0.180171
 C         1.310609         0.002600        -0.109319
 C         1.778112         1.397122        -0.605365
 C         3.194218         0.677284        -0.274365
 C         4.079695         0.894887        -1.539935
 O         3.375318        -0.372249        -2.029468
 C         2.629701        -0.596674        -0.737418
 O         3.269011         0.714771         1.141626
 C         1.793031         0.069402         1.301831
 H         0.199515        -1.727634        -0.599272
 H        -0.465128        -0.860518         0.797433
 H        -0.740926        -0.194851        -0.814862
 H         1.694356         1.714902        -1.720131
 H         1.589684         2.393159         0.049888
 H         3.806024         1.854575        -2.082039
 H         5.174135         0.816523        -1.467156
 H         2.702409        -1.617150        -0.327654
 H         1.903827        -1.008643         1.827599
 H         1.275002         0.633591         2.103738
