19
Iteration:  2731
 C        -0.077116        -0.685765        -0.266171
 C         1.337979        -0.138100        -0.125107
 C         1.760756         1.239491        -0.980923
 C         3.079863         0.796831        -0.363105
 C         4.188501         0.530672        -1.320195
 O         3.468436        -0.609399        -1.819197
 C         2.774311        -0.719591        -0.516653
 O         3.033488         1.165969         1.010659
 C         1.869991         0.407257         1.343993
 H        -0.795388        -0.002392         0.175610
 H        -0.442759        -0.829704        -1.295446
 H        -0.156400        -1.734468         0.135928
 H         1.634787         1.006203        -2.018568
 H         1.347054         2.186203        -0.654320
 H         4.455034         1.319620        -2.083560
 H         5.038125         0.008120        -0.881524
 H         3.291315        -1.364389         0.219063
 H         2.023939        -0.324795         2.117946
 H         1.118991         1.082491         1.787623
