19
Iteration:  4184charge 0 multiplicity 1
 C         0.024720        -0.793130        -0.316736
 C         1.310771        -0.031664        -0.189634
 C         1.719246         1.293141        -0.935715
 C         3.088105         0.806049        -0.331647
 C         4.237130         0.545500        -1.270833
 O         3.361642        -0.652649        -1.815583
 C         2.666434        -0.676384        -0.458547
 O         3.142651         1.072363         0.995453
 C         1.843049         0.481283         1.307451
 H        -0.899291        -0.433328         0.073259
 H        -0.096630        -1.131439        -1.353236
 H         0.243920        -1.746796         0.176872
 H         1.664563         1.308610        -2.007167
 H         1.352237         2.245316        -0.410761
 H         4.427245         1.044236        -2.260582
 H         5.099723         0.300882        -0.788495
 H         3.118614        -1.424049         0.285899
 H         1.895118        -0.240775         2.097371
 H         1.205780         1.284855         1.486341
