19
Iteration:  2400
 C        -0.136407        -0.727520        -0.164634
 C         1.322729        -0.101068        -0.135633
 C         1.749246         1.130016        -0.960249
 C         3.140259         0.737432        -0.315954
 C         4.286081         0.479758        -1.320228
 O         3.445579        -0.509766        -1.890036
 C         2.727103        -0.695779        -0.623076
 O         3.046764         1.215084         1.005211
 C         1.818130         0.437393         1.354963
 H        -0.646055         0.169724        -0.440969
 H        -0.496311        -1.297218        -1.069645
 H        -0.233107        -1.229766         0.867116
 H         1.703344         0.766445        -1.993244
 H         1.283916         1.977032        -0.616968
 H         4.786020         1.248302        -1.898868
 H         5.168989         0.065954        -0.770898
 H         3.182541        -1.357385         0.170640
 H         2.218081        -0.481338         1.978936
 H         1.022795         1.156442         1.732719
