19
Iteration:  1047charge 0 multiplicity 1
 C        -0.056117        -0.686963        -0.273881
 C         1.235712        -0.020180        -0.094368
 C         1.680911         1.265273        -0.836734
 C         3.131658         0.840098        -0.373690
 C         4.233320         0.537488        -1.408034
 O         3.429816        -0.584107        -1.804081
 C         2.727673        -0.589001        -0.557219
 O         3.109150         1.042018         1.008458
 C         1.894699         0.245413         1.301145
 H         0.136867        -1.743376        -0.370889
 H        -0.659016        -0.505647         0.572310
 H        -0.570886        -0.367039        -1.213215
 H         1.404390         1.088821        -1.888870
 H         1.478305         2.293932        -0.537288
 H         4.377662         1.551842        -2.064219
 H         5.086750         0.154213        -0.888466
 H         3.258683        -1.301962         0.178222
 H         2.208030        -0.812792         1.559337
 H         1.235819         0.632479         2.125037
