19
Iteration:   806
 C         0.013603        -0.727194        -0.306027
 C         1.381402        -0.099174        -0.064896
 C         1.757191         1.264495        -0.706399
 C         3.125625         0.762268        -0.289925
 C         4.248983         0.502127        -1.470406
 O         3.296102        -0.314224        -1.957206
 C         2.664909        -0.639330        -0.654569
 O         3.095131         1.052680         1.099444
 C         1.864129         0.178641         1.358359
 H        -0.112343        -1.460685        -1.144641
 H        -0.364870        -1.171490         0.604661
 H        -0.767749         0.176583        -0.640874
 H         1.587668         1.247416        -1.804274
 H         1.431353         2.149140        -0.101040
 H         4.306841         1.321948        -2.304293
 H         5.202304         0.108522        -1.201567
 H         3.088422        -1.619146        -0.266928
 H         2.277945        -0.691897         1.915125
 H         1.173658         0.651029         2.104264
