19
Iteration:  1138charge 0 multiplicity 1
 C        -0.032639        -0.755436        -0.203877
 C         1.333086        -0.052971        -0.108532
 C         1.779515         1.275113        -0.829750
 C         3.111685         0.795026        -0.363765
 C         4.181016         0.620704        -1.375636
 O         3.395280        -0.548788        -1.889672
 C         2.716063        -0.676231        -0.521040
 O         3.140952         1.011788         1.018870
 C         1.765301         0.354152         1.261345
 H         0.109454        -1.591016        -0.851409
 H        -0.388704        -1.030218         0.714376
 H        -0.688776        -0.117758        -0.740059
 H         1.727149         1.164266        -1.940101
 H         1.477367         2.334243        -0.452891
 H         4.488365         1.400401        -2.108336
 H         5.045782         0.069674        -0.884841
 H         3.138327        -1.538971         0.021267
 H         1.978526        -0.445100         2.032624
 H         1.038979         1.042753         1.664877
