19
Iteration:  4600
 C         0.032944        -0.713787        -0.141157
 C         1.304218         0.017699        -0.136520
 C         1.817922         1.285820        -0.979130
 C         3.186403         0.790324        -0.309935
 C         4.169442         0.533453        -1.479138
 O         3.474508        -0.683044        -1.831296
 C         2.762640        -0.663650        -0.465627
 O         3.028123         1.015296         1.104570
 C         1.682561         0.484455         1.248196
 H        -0.874681        -0.099037        -0.183179
 H        -0.008778        -1.421526        -0.990937
 H        -0.132970        -1.459260         0.753308
 H         1.797700         1.134694        -2.049584
 H         1.376964         2.219260        -0.769677
 H         4.188257         1.380156        -2.259707
 H         5.167120         0.372112        -1.144889
 H         3.099969        -1.535507         0.039047
 H         1.802589        -0.488196         1.862372
 H         0.826981         1.188087         1.366222
