19
Iteration:  1929charge 0 multiplicity 1
 C        -0.126219        -0.675444        -0.192335
 C         1.325437        -0.090081        -0.131089
 C         1.701929         1.190783        -0.938851
 C         3.166110         0.720567        -0.316322
 C         4.289071         0.489607        -1.429047
 O         3.509452        -0.582880        -1.838693
 C         2.770769        -0.696837        -0.506944
 O         3.058367         1.134123         1.064298
 C         1.723326         0.481381         1.261493
 H        -0.648476        -0.430551         0.697403
 H        -0.658752        -0.484191        -1.183987
 H        -0.094907        -1.820568        -0.120269
 H         1.699719         1.006753        -2.015007
 H         1.273316         2.138861        -0.574032
 H         4.486434         1.471847        -2.102901
 H         5.294192         0.224992        -1.063383
 H         3.296074        -1.513564        -0.000909
 H         1.999547        -0.204838         2.121618
 H         0.820881         1.171610         1.499361
