19
Iteration:  1556charge 0 multiplicity 1
 C         0.011967        -0.731726        -0.257163
 C         1.386284        -0.012741        -0.143344
 C         1.705962         1.278452        -0.839889
 C         3.142721         0.840737        -0.312054
 C         4.183584         0.600415        -1.405083
 O         3.411331        -0.647426        -1.849020
 C         2.736479        -0.670332        -0.572512
 O         3.115443         0.955246         1.088409
 C         1.748627         0.432726         1.308074
 H         0.128101        -1.629322        -0.921718
 H        -0.142628        -0.982130         0.799017
 H        -0.777697        -0.041718        -0.769207
 H         1.595011         1.141466        -1.893890
 H         1.180328         2.181068        -0.647091
 H         4.077737         1.340090        -2.170834
 H         5.281660         0.225347        -1.376516
 H         3.301953        -1.405234         0.088900
 H         1.674051        -0.431739         1.927083
 H         1.024096         1.242440         1.632478
