19
Iteration:  2898
 C        -0.009635        -0.731541        -0.301536
 C         1.304908        -0.113329        -0.170710
 C         1.677326         1.128013        -0.907298
 C         3.161282         0.767485        -0.307342
 C         4.242782         0.542385        -1.432314
 O         3.470109        -0.622695        -1.858300
 C         2.726287        -0.676700        -0.464803
 O         3.074154         1.205076         1.101266
 C         1.791532         0.483589         1.338140
 H        -0.643369        -0.168677         0.476671
 H        -0.611028        -0.637871        -1.226026
 H        -0.067114        -1.797269        -0.168073
 H         1.596817         0.929076        -1.966991
 H         1.358397         2.091546        -0.609366
 H         4.371922         1.244112        -2.384618
 H         5.244406         0.282378        -1.007722
 H         3.139789        -1.567684         0.001596
 H         1.855927        -0.280956         2.080435
 H         1.071163         1.210619         1.700243
