19
Iteration:   587
 C        -0.045331        -0.682659        -0.239023
 C         1.390494        -0.210538        -0.046978
 C         1.702826         1.210448        -0.610655
 C         3.158150         0.811058        -0.280746
 C         4.213903         0.607715        -1.325381
 O         3.203791        -0.148961        -2.066998
 C         2.663946        -0.623978        -0.840812
 O         3.179166         0.933830         1.089684
 C         1.997138         0.068350         1.320385
 H        -0.219255        -0.806323        -1.280681
 H        -0.240280        -1.672231         0.188754
 H        -0.833808        -0.063876         0.350292
 H         1.486049         1.271771        -1.711492
 H         1.267063         2.135630        -0.069287
 H         4.540639         1.566742        -1.936824
 H         5.045781        -0.043794        -0.876989
 H         2.971526        -1.629814        -0.541485
 H         2.367462        -0.829606         1.907466
 H         1.268146         0.778282         1.709829
