19
Iteration:  2029
 C         0.052885        -0.747440        -0.268550
 C         1.356250        -0.057436        -0.096101
 C         1.756543         1.161909        -0.934128
 C         3.186306         0.761989        -0.344997
 C         4.315266         0.603398        -1.413298
 O         3.337944        -0.573221        -1.873376
 C         2.660595        -0.743787        -0.455651
 O         3.082046         1.055929         1.131125
 C         1.733942         0.561600         1.278316
 H        -0.772882        -0.204340        -0.620442
 H         0.064405        -1.501491        -1.108251
 H        -0.194751        -1.340135         0.639207
 H         1.679001         0.838909        -1.955780
 H         1.326743         2.180315        -0.706180
 H         4.054588         1.397075        -2.218061
 H         5.280199         0.188837        -1.204804
 H         3.115028        -1.540758         0.081721
 H         1.748682        -0.186319         2.129527
 H         0.994900         1.383147         1.488065
