19
Iteration:  2729charge 0 multiplicity 1
 C        -0.070356        -0.676608        -0.259452
 C         1.337848        -0.143965        -0.112100
 C         1.772150         1.212247        -0.988322
 C         3.087820         0.810061        -0.369268
 C         4.200920         0.537999        -1.319720
 O         3.459851        -0.593484        -1.825198
 C         2.768655        -0.741831        -0.505172
 O         3.022027         1.153327         1.014708
 C         1.864270         0.420874         1.334831
 H        -0.786965        -0.054555         0.195664
 H        -0.456939        -0.759997        -1.282515
 H        -0.144996        -1.726214         0.153934
 H         1.574635         1.042966        -2.033419
 H         1.318299         2.249537        -0.687006
 H         4.435839         1.306340        -2.044925
 H         5.132904         0.016521        -0.881029
 H         3.260787        -1.390771         0.240622
 H         2.051765        -0.344495         2.034546
 H         1.125577         1.098793         1.731116
