19
Iteration:  2669
 C         0.011712        -0.795673        -0.202463
 C         1.285708         0.001429        -0.166751
 C         1.721988         1.276253        -0.915683
 C         3.162386         0.798997        -0.346028
 C         4.279706         0.514537        -1.381236
 O         3.453941        -0.653782        -1.776282
 C         2.669050        -0.630674        -0.524308
 O         3.098735         1.059780         0.992109
 C         1.701333         0.444445         1.233602
 H        -0.623260        -0.432852         0.690091
 H        -0.382547        -0.828539        -1.218520
 H         0.255645        -1.809324         0.070911
 H         1.587222         1.250772        -2.051218
 H         1.422057         2.276426        -0.518785
 H         4.595574         1.389683        -2.084518
 H         5.198016         0.082754        -0.928318
 H         3.075005        -1.342795         0.230630
 H         1.762212        -0.253327         2.192752
 H         1.039375         1.276919         1.623178
