19
Iteration:  1097
 C         0.013804        -0.740045        -0.217930
 C         1.335639        -0.079966        -0.082865
 C         1.825503         1.190777        -0.826239
 C         3.215367         0.743250        -0.295946
 C         4.239103         0.600292        -1.434680
 O         3.288139        -0.451154        -1.912911
 C         2.717660        -0.704717        -0.523922
 O         3.109407         1.018703         1.051336
 C         1.726387         0.415915         1.276482
 H         0.161134        -1.731856        -0.741082
 H        -0.591483        -0.996506         0.742593
 H        -0.536113        -0.262734        -1.026618
 H         1.735243         1.122399        -1.911884
 H         1.352459         2.143825        -0.475665
 H         4.362644         1.366656        -2.127932
 H         5.196621         0.235250        -0.986259
 H         3.047218        -1.649042        -0.121097
 H         1.628468        -0.337049         2.047289
 H         1.156855         1.344681         1.478870
