19
Iteration:  2236
 C        -0.092716        -0.672742        -0.131138
 C         1.277294        -0.099557        -0.156413
 C         1.666011         1.207825        -0.978122
 C         3.193374         0.762684        -0.292221
 C         4.229126         0.590436        -1.398279
 O         3.524182        -0.625980        -1.867408
 C         2.781435        -0.662797        -0.501375
 O         3.120605         1.077539         1.064334
 C         1.732469         0.435394         1.278875
 H        -0.781608         0.057995        -0.414680
 H        -0.250910        -1.314067        -1.042119
 H        -0.420923        -1.339381         0.742855
 H         1.760730         0.948435        -2.027932
 H         1.171268         2.212889        -0.756002
 H         4.296407         1.402403        -2.203262
 H         5.259140         0.200620        -1.142210
 H         3.125145        -1.563630         0.106010
 H         1.803090        -0.345783         2.001732
 H         1.039773         1.199829         1.561919
