19
Iteration:  1774
 C        -0.078736        -0.721228        -0.148211
 C         1.369362        -0.084574        -0.176120
 C         1.711577         1.239208        -0.984036
 C         3.117385         0.847169        -0.291164
 C         4.241293         0.500055        -1.346768
 O         3.476200        -0.624856        -1.858231
 C         2.728137        -0.664467        -0.568964
 O         3.125228         1.055777         1.104634
 C         1.743330         0.481951         1.229804
 H        -0.848606        -0.026245        -0.513910
 H        -0.110798        -1.528996        -0.919483
 H        -0.274892        -1.244978         0.831379
 H         1.564648         1.172533        -2.052949
 H         1.251665         2.124754        -0.569740
 H         4.424498         1.270876        -2.187612
 H         5.123550         0.115733        -0.898618
 H         3.088288        -1.492533         0.068796
 H         1.899282        -0.340753         1.988684
 H         1.032300         1.297196         1.566877
