19
Iteration:  1024
 C        -0.061501        -0.665199        -0.224591
 C         1.355404        -0.149124        -0.124303
 C         1.761962         1.211924        -0.854644
 C         3.128658         0.878591        -0.307607
 C         4.222634         0.620669        -1.357303
 O         3.421718        -0.553674        -1.948872
 C         2.677182        -0.714782        -0.617102
 O         3.090660         1.039846         1.072590
 C         1.858506         0.341385         1.364702
 H        -0.155203        -1.715810         0.091873
 H        -0.730076        -0.063116         0.392728
 H        -0.379324        -0.643827        -1.283471
 H         1.751307         1.246658        -1.936702
 H         1.296464         2.059130        -0.412844
 H         4.238620         1.416850        -2.289377
 H         5.141522         0.341032        -0.883513
 H         3.026888        -1.709615        -0.168761
 H         2.138550        -0.458576         2.086360
 H         0.918007         0.887347         1.703019
