19
Iteration:  4023charge 0 multiplicity 1
 C         0.014314        -0.786003        -0.259497
 C         1.293278        -0.013037        -0.134303
 C         1.802253         1.189261        -0.927053
 C         3.112729         0.753277        -0.345662
 C         4.214473         0.503223        -1.399459
 O         3.405902        -0.614995        -1.880825
 C         2.721972        -0.627638        -0.456478
 O         3.076681         1.080965         1.094217
 C         1.739465         0.534717         1.296934
 H        -0.880193        -0.150625        -0.029566
 H         0.057775        -1.182816        -1.283999
 H         0.120746        -1.708474         0.440922
 H         1.836983         1.199673        -1.973718
 H         1.349677         2.144310        -0.566876
 H         4.404919         1.341052        -2.070108
 H         5.288268         0.173382        -1.128101
 H         3.131179        -1.513874        -0.015854
 H         1.805836        -0.341635         2.022522
 H         1.133114         1.358279         1.727945
