19
Iteration:   610
 C        -0.054911        -0.681069        -0.325106
 C         1.303320        -0.095613        -0.028891
 C         1.721011         1.302021        -0.697803
 C         3.150483         0.731181        -0.327558
 C         4.202855         0.688053        -1.441604
 O         3.248248        -0.266116        -2.128309
 C         2.684578        -0.656237        -0.660279
 O         3.172292         0.914492         1.167054
 C         1.963160         0.057571         1.456873
 H        -0.609864        -0.257304        -1.134599
 H         0.054453        -1.726697        -0.470102
 H        -0.561010        -0.720323         0.693722
 H         1.548496         1.413449        -1.813892
 H         1.317036         2.218542        -0.090190
 H         4.261673         1.750602        -1.891670
 H         5.204683         0.128968        -1.311204
 H         3.272601        -1.557626        -0.452577
 H         2.484108        -0.916923         1.743337
 H         1.402854         0.568435         2.225645
