19
Iteration:  1442
 C         0.018759        -0.728046        -0.257702
 C         1.364471        -0.066504        -0.151076
 C         1.767775         1.216231        -0.860648
 C         3.134141         0.757795        -0.289261
 C         4.190478         0.636706        -1.402839
 O         3.399401        -0.622328        -1.782207
 C         2.755596        -0.698188        -0.523529
 O         3.075787         1.038572         1.027526
 C         1.764951         0.433203         1.238603
 H        -0.561136        -0.342534        -1.117179
 H        -0.042003        -1.849915        -0.129365
 H        -0.688971        -0.319021         0.514286
 H         1.857695         1.336983        -1.926366
 H         1.475791         2.138293        -0.539633
 H         3.954923         1.369299        -2.294752
 H         5.215210         0.453265        -1.229542
 H         2.878478        -1.630755        -0.040440
 H         1.855764        -0.287994         2.037986
 H         1.255891         1.271971         1.590812
