19
Iteration:   184
 C        -0.005384        -0.679241        -0.178587
 C         1.422516        -0.130340        -0.108790
 C         1.840621         1.346415        -0.516595
 C         3.189250         0.608127        -0.241943
 C         4.054530         0.887172        -1.416935
 O         3.034220         0.095253        -2.203310
 C         2.721348        -0.603311        -0.884724
 O         3.252911         0.550702         1.219231
 C         1.955366        -0.097272         1.329327
 H        -0.629124         0.205169        -0.128430
 H        -0.088501        -1.349424        -1.072766
 H        -0.397067        -1.344209         0.787412
 H         1.595075         1.621281        -1.522307
 H         1.556730         2.051657         0.259687
 H         4.165298         1.880470        -1.846164
 H         5.124613         0.382685        -1.648670
 H         3.199875        -1.634514        -0.863227
 H         2.127913        -1.120651         1.745990
 H         1.362295         0.418174         2.076299
