19
Iteration:  2104
 C        -0.126187        -0.732489        -0.196895
 C         1.270420        -0.060248        -0.090001
 C         1.828248         1.128834        -0.983076
 C         3.174464         0.761388        -0.361545
 C         4.295654         0.588911        -1.290626
 O         3.414036        -0.635207        -1.905200
 C         2.760692        -0.631534        -0.515839
 O         3.013778         1.225336         1.045624
 C         1.830161         0.369332         1.301259
 H        -0.815458        -0.355878         0.514753
 H        -0.684212        -0.494032        -1.144027
 H        -0.117634        -1.855754        -0.042808
 H         1.861150         0.847747        -2.057962
 H         1.343547         2.263159        -0.806514
 H         4.615082         1.198054        -2.230469
 H         5.032047         0.100263        -0.712092
 H         3.203397        -1.539930         0.010667
 H         1.958915        -0.384946         2.045561
 H         1.112526         1.114150         1.646206
