19
Iteration:  2871
 C        -0.036654        -0.714563        -0.164523
 C         1.294200        -0.040557        -0.168856
 C         1.773888         1.283654        -0.975064
 C         3.077060         0.827157        -0.426391
 C         4.268684         0.651280        -1.388557
 O         3.465007        -0.728973        -1.713160
 C         2.737750        -0.647752        -0.476373
 O         2.988292         1.147038         1.021673
 C         1.848041         0.257078         1.240716
 H        -0.704385        -0.170481         0.440742
 H        -0.606440        -0.656498        -1.097083
 H         0.076121        -1.838934        -0.055143
 H         1.594188         1.188985        -2.108735
 H         1.660829         2.427526        -0.622637
 H         4.339398         1.081229        -2.332046
 H         5.226237         0.477298        -0.884043
 H         3.192631        -1.420479         0.195641
 H         2.003684        -0.697411         1.869637
 H         1.162458         0.943726         1.798076
