19
Iteration:   947
 C        -0.037599        -0.836281        -0.314218
 C         1.288473        -0.024682        -0.175471
 C         1.671592         1.408586        -0.739981
 C         3.140417         0.806910        -0.346614
 C         4.262224         0.562460        -1.342502
 O         3.362679        -0.584572        -1.871318
 C         2.656975        -0.570734        -0.602482
 O         3.148007         1.031652         1.029783
 C         1.936944         0.287968         1.310285
 H        -0.587929        -0.737747         0.594980
 H        -0.560151        -0.370175        -1.054013
 H         0.014951        -1.856793        -0.604205
 H         1.369480         1.630595        -1.746271
 H         1.370395         2.178177        -0.049733
 H         4.675046         1.237029        -2.218588
 H         5.061587        -0.006317        -0.942804
 H         2.980716        -1.454339         0.054088
 H         2.003862        -0.730419         1.739192
 H         1.229474         0.770730         2.049186
