19
Iteration:  2823
 C         0.003896        -0.773781        -0.236714
 C         1.359027        -0.145195        -0.124159
 C         1.795003         1.141410        -0.925827
 C         3.132031         0.761748        -0.378324
 C         4.286571         0.569829        -1.335138
 O         3.375056        -0.522156        -1.873975
 C         2.710348        -0.713922        -0.483219
 O         3.066250         1.086930         0.996165
 C         1.730533         0.560650         1.334726
 H        -0.713044         0.109818        -0.120216
 H        -0.391485        -1.220377        -1.165514
 H        -0.073114        -1.540346         0.518348
 H         1.586084         1.160535        -1.961505
 H         1.351721         2.015055        -0.556702
 H         4.561775         1.497331        -1.912269
 H         5.119395         0.039756        -0.900652
 H         3.240413        -1.547493        -0.033908
 H         1.890305        -0.229407         2.183484
 H         0.914326         1.289924         1.603879
