19
Iteration:  3368
 C        -0.057046        -0.745574        -0.270104
 C         1.246476        -0.054554        -0.247259
 C         1.716483         1.236129        -0.930266
 C         3.140555         0.744149        -0.347393
 C         4.201096         0.539933        -1.379731
 O         3.527856        -0.667223        -1.740543
 C         2.671696        -0.689510        -0.535178
 O         3.219349         1.103992         1.019501
 C         1.713364         0.523886         1.345195
 H        -0.947207        -0.123752        -0.035209
 H        -0.367765        -1.592168        -0.878126
 H        -0.062123        -1.317801         0.657943
 H         1.427590         1.270961        -2.022647
 H         1.557283         2.232796        -0.588156
 H         4.326174         1.268747        -2.287215
 H         5.199694         0.333108        -0.894543
 H         3.112307        -1.543813         0.079473
 H         1.804291        -0.211947         2.126361
 H         1.165618         1.458800         1.583458
