19
Iteration:  4013
 C         0.044951        -0.798976        -0.286562
 C         1.339635        -0.050416        -0.175909
 C         1.643566         1.331696        -0.923766
 C         3.160752         0.789668        -0.304828
 C         4.234512         0.531973        -1.402328
 O         3.446418        -0.644627        -1.788652
 C         2.652017        -0.713119        -0.537554
 O         3.132517         1.082992         1.028202
 C         1.770438         0.496233         1.333645
 H        -0.909627        -0.237553         0.002906
 H        -0.161056        -1.069968        -1.338516
 H         0.037560        -1.758305         0.401409
 H         1.611263         1.153711        -1.974385
 H         1.349608         2.298911        -0.451880
 H         4.437685         1.241905        -2.175435
 H         5.125102         0.017018        -0.882445
 H         2.956411        -1.390165         0.222227
 H         1.781888        -0.248340         2.156166
 H         1.116969         1.353936         1.603283
