19
Iteration:  2678
 C        -0.015502        -0.798584        -0.134025
 C         1.297501        -0.075968        -0.181190
 C         1.825559         1.260740        -0.930124
 C         3.140744         0.762981        -0.402983
 C         4.257175         0.574283        -1.361374
 O         3.465821        -0.634513        -1.835831
 C         2.696269        -0.625599        -0.466790
 O         3.056718         1.058317         1.044892
 C         1.724972         0.523595         1.238626
 H        -0.841261        -0.449088         0.570862
 H        -0.550178        -0.651724        -1.084817
 H         0.115907        -1.891422         0.034615
 H         1.757303         1.319298        -2.003362
 H         1.412830         2.122386        -0.531554
 H         4.624501         1.165187        -2.279489
 H         5.069448         0.202957        -0.819546
 H         2.951091        -1.548213         0.075607
 H         1.715339        -0.452993         1.873792
 H         1.022623         1.366072         1.502871
