19
Iteration:  1748
 C        -0.080251        -0.776915        -0.255314
 C         1.318729        -0.010716        -0.124119
 C         1.781037         1.269503        -0.967725
 C         3.139721         0.820711        -0.354937
 C         4.299980         0.482317        -1.292623
 O         3.379128        -0.607515        -1.783913
 C         2.683019        -0.615356        -0.529833
 O         3.059071         1.127864         0.963318
 C         1.837099         0.365348         1.308201
 H        -0.932526        -0.311495        -0.774342
 H         0.170119        -1.706921        -0.693908
 H        -0.430764        -1.085212         0.710271
 H         1.513914         1.181212        -2.056538
 H         1.537886         2.307365        -0.475884
 H         4.391344         1.141146        -2.197598
 H         5.264382         0.134240        -0.837650
 H         3.005073        -1.448982         0.112437
 H         2.255504        -0.503709         1.837656
 H         1.214459         0.973743         1.928947
