19
Iteration:  1972
 C        -0.002914        -0.732449        -0.259263
 C         1.312240         0.036485        -0.124375
 C         1.712311         1.299982        -0.934159
 C         3.136209         0.874187        -0.398224
 C         4.235867         0.449503        -1.302718
 O         3.449197        -0.665332        -1.804858
 C         2.711080        -0.646465        -0.517255
 O         3.019271         1.134817         0.997576
 C         1.809905         0.310083         1.334476
 H        -0.801440        -0.103513        -0.079039
 H         0.040835        -1.182499        -1.258729
 H        -0.051632        -1.554069         0.494447
 H         1.538894         1.046840        -2.009044
 H         1.386001         2.362860        -0.683591
 H         4.359659         1.044985        -2.275757
 H         5.191452         0.248371        -1.041780
 H         3.201416        -1.409983         0.096162
 H         2.087470        -0.628013         1.856155
 H         1.326483         0.991325         2.066524
