19
Iteration:  3440charge 0 multiplicity 1
 C        -0.035592        -0.750885        -0.302758
 C         1.344578        -0.043255        -0.148623
 C         1.814219         1.115477        -0.951390
 C         3.131655         0.717898        -0.358191
 C         4.233177         0.436051        -1.325943
 O         3.372181        -0.571584        -1.838070
 C         2.714274        -0.717982        -0.443840
 O         3.084600         1.333636         1.009574
 C         1.783305         0.465289         1.341817
 H        -0.746901        -0.380394         0.406000
 H        -0.519821        -0.777031        -1.286493
 H        -0.130877        -1.839786        -0.121741
 H         1.587732         1.059576        -1.981655
 H         1.505997         2.168761        -0.566806
 H         4.472971         1.151165        -2.084861
 H         5.155168        -0.007743        -0.819238
 H         3.188995        -1.530626         0.039731
 H         2.146197        -0.342960         2.071646
 H         0.960128         1.065165         1.695457
