19
Iteration:  1199charge 0 multiplicity 1
 C         0.014373        -0.638527        -0.230784
 C         1.339836        -0.104731        -0.161449
 C         1.704048         1.164230        -0.938258
 C         3.165804         0.737185        -0.315276
 C         4.276641         0.599025        -1.370052
 O         3.362987        -0.507849        -1.854413
 C         2.740738        -0.658431        -0.486525
 O         3.024935         1.055238         0.988500
 C         1.839849         0.354111         1.345872
 H        -0.299353        -0.848101        -1.283373
 H        -0.221780        -1.730165         0.193355
 H        -0.735084        -0.077496         0.401381
 H         1.706180         1.138432        -2.003769
 H         1.240128         2.027169        -0.616839
 H         4.462948         1.471998        -2.061266
 H         5.231514         0.165906        -1.152319
 H         3.004309        -1.490369         0.197833
 H         2.051478        -0.462686         2.024449
 H         1.132233         1.034963         1.859778
