19
Iteration:  3410charge 0 multiplicity 1
 C         0.058099        -0.723769        -0.358285
 C         1.382022         0.005549        -0.129571
 C         1.810448         1.199886        -0.941506
 C         3.132753         0.813100        -0.368715
 C         4.216207         0.451861        -1.452743
 O         3.296593        -0.699682        -1.778557
 C         2.794467        -0.651123        -0.425176
 O         3.045762         1.229783         1.054117
 C         1.715207         0.408391         1.400924
 H        -0.798746        -0.244813         0.242005
 H        -0.318916        -0.662958        -1.447993
 H         0.143185        -1.797431         0.013997
 H         1.792297         1.021211        -2.031694
 H         1.286494         2.147454        -0.785244
 H         4.431638         1.028205        -2.297008
 H         5.181337         0.094362        -1.082991
 H         3.208669        -1.456191         0.236066
 H         2.047880        -0.344761         2.087619
 H         0.989406         1.110884         1.792062
