19
Iteration:  4961
 C         0.033958        -0.753612        -0.296993
 C         1.374617        -0.131156        -0.223572
 C         1.871139         1.135107        -0.921522
 C         3.211722         0.704940        -0.281611
 C         4.153889         0.528934        -1.426197
 O         3.274478        -0.543593        -1.801922
 C         2.774384        -0.690350        -0.415423
 O         3.078363         1.123302         1.055225
 C         1.694066         0.558357         1.265122
 H        -0.714199        -0.049119        -0.062990
 H        -0.169772        -1.131608        -1.308223
 H         0.167821        -1.466220         0.506903
 H         1.585646         1.156623        -1.967784
 H         1.414693         2.117950        -0.488810
 H         4.226540         1.351659        -2.238567
 H         5.123722         0.242692        -1.041976
 H         3.291732        -1.492513         0.227444
 H         1.765343        -0.168922         2.044430
 H         1.050781         1.355348         1.709092
