19
Iteration:  1676
 C        -0.032458        -0.757611        -0.258789
 C         1.329981        -0.029983        -0.177578
 C         1.770956         1.191871        -0.943540
 C         3.140039         0.756597        -0.330579
 C         4.150202         0.585154        -1.418096
 O         3.471215        -0.638979        -1.837617
 C         2.702102        -0.683270        -0.621992
 O         3.118649         1.048452         1.123921
 C         1.772524         0.503972         1.384263
 H        -0.539699        -0.611749        -1.233794
 H         0.222809        -1.793808         0.056620
 H        -0.723939        -0.236333         0.579332
 H         1.779657         1.144054        -1.996900
 H         1.293907         2.060179        -0.643054
 H         4.204521         1.563741        -1.940020
 H         5.126110         0.217486        -1.060018
 H         2.940475        -1.518444         0.073559
 H         1.800555        -0.205677         2.220875
 H         1.217170         1.442536         1.586873
