19
Iteration:  3125charge 0 multiplicity 1
 C         0.006983        -0.763431        -0.287520
 C         1.381727        -0.089867        -0.143355
 C         1.855738         1.102146        -0.975317
 C         3.200702         0.739246        -0.309863
 C         4.177845         0.539054        -1.401132
 O         3.313131        -0.565098        -1.826037
 C         2.723186        -0.677007        -0.385107
 O         3.075314         1.216372         1.038743
 C         1.754338         0.427940         1.289560
 H        -0.738744         0.004739        -0.254371
 H        -0.235546        -1.176166        -1.280462
 H        -0.320009        -1.433471         0.514435
 H         1.702597         1.071449        -2.032979
 H         1.422182         2.091082        -0.714759
 H         4.174662         1.417031        -2.030031
 H         5.203074         0.220489        -1.086321
 H         3.101580        -1.592169         0.090166
 H         1.898170        -0.241565         2.193277
 H         1.127145         1.301933         1.582758
