19
Iteration:  2610
 C         0.039663        -0.700787        -0.319725
 C         1.387780        -0.085231        -0.118232
 C         1.684745         1.144448        -0.953332
 C         3.239601         0.736280        -0.245875
 C         4.216346         0.516077        -1.460794
 O         3.338871        -0.596527        -1.860211
 C         2.737801        -0.728704        -0.426237
 O         3.023355         1.203358         1.098381
 C         1.796559         0.489459         1.316030
 H        -0.603600         0.098878        -0.598472
 H         0.049122        -1.216401        -1.318257
 H        -0.438692        -1.424368         0.444035
 H         1.676838         1.136623        -1.992995
 H         1.182328         1.979738        -0.528718
 H         4.376146         1.410673        -2.078368
 H         5.208801         0.107592        -1.211213
 H         3.102556        -1.661361         0.030001
 H         2.077180        -0.410095         2.004598
 H         1.097086         1.233827         1.772457
