19
Iteration:  1833charge 0 multiplicity 1
 C        -0.010959        -0.690837        -0.299023
 C         1.327836        -0.057873        -0.182758
 C         1.693418         1.210505        -0.912065
 C         3.171229         0.831973        -0.328947
 C         4.283170         0.494845        -1.394729
 O         3.400035        -0.663800        -1.760402
 C         2.686038        -0.660966        -0.485192
 O         3.068895         1.183086         1.036377
 C         1.808018         0.426281         1.281598
 H        -0.606057        -0.566640         0.608770
 H        -0.485222        -0.502438        -1.316137
 H         0.112432        -1.824028        -0.244881
 H         1.538098         0.995922        -1.960886
 H         1.241935         2.099883        -0.609724
 H         4.570834         1.083867        -2.176085
 H         5.258096        -0.026949        -1.104755
 H         2.954777        -1.391865         0.301337
 H         2.089671        -0.403737         1.922661
 H         1.072304         1.007397         1.848605
