19
Iteration:  1804charge 0 multiplicity 1
 C        -0.093721        -0.707078        -0.199189
 C         1.355975        -0.126683        -0.112634
 C         1.897347         1.141850        -0.988171
 C         3.142341         0.737389        -0.291391
 C         4.235743         0.599136        -1.402404
 O         3.428446        -0.577511        -1.904442
 C         2.735651        -0.742417        -0.446345
 O         3.038620         1.113350         1.059682
 C         1.701118         0.521211         1.273133
 H        -0.847948         0.009074         0.222125
 H        -0.326854        -0.881887        -1.188614
 H        -0.143743        -1.592620         0.349587
 H         1.704235         0.963203        -2.071949
 H         1.529838         2.222540        -0.619193
 H         4.457901         1.457814        -2.185022
 H         5.184498         0.147525        -1.131898
 H         3.143661        -1.502390         0.204714
 H         1.890410        -0.255353         2.047409
 H         0.997333         1.196062         1.721778
