19
Iteration:   828
 C        -0.042605        -0.763314        -0.252977
 C         1.337022        -0.015532        -0.162821
 C         1.742055         1.348640        -0.804332
 C         3.138881         0.870327        -0.336024
 C         4.212381         0.612658        -1.288137
 O         3.240883        -0.504264        -1.999738
 C         2.689199        -0.640502        -0.649512
 O         3.164763         0.981076         1.142457
 C         1.950379         0.173174         1.282257
 H        -0.271317        -1.020025        -1.330978
 H         0.055479        -1.645798         0.362355
 H        -0.996604        -0.042101         0.046696
 H         1.435891         1.242553        -1.864321
 H         1.285951         2.242010        -0.289135
 H         4.641039         1.554810        -1.832904
 H         4.979225         0.036048        -0.844451
 H         3.231644        -1.408688        -0.000754
 H         2.312023        -0.797470         1.753363
 H         1.261088         0.608671         2.078622
