19
Iteration:  2281
 C        -0.051952        -0.783398        -0.198583
 C         1.313232        -0.010629        -0.175609
 C         1.743963         1.230963        -0.953083
 C         3.220607         0.833463        -0.364871
 C         4.263442         0.438266        -1.341630
 O         3.425809        -0.635306        -1.873239
 C         2.717172        -0.642341        -0.515238
 O         3.064416         1.182986         1.084083
 C         1.731049         0.426236         1.293740
 H        -0.910267        -0.344102         0.310648
 H        -0.543745        -1.082950        -1.169663
 H         0.202280        -1.787775         0.306084
 H         1.607775         1.073578        -2.068936
 H         1.315507         2.180581        -0.416184
 H         4.432056         1.263082        -2.171579
 H         5.269117         0.101894        -1.010208
 H         3.274631        -1.432875         0.069034
 H         1.964578        -0.364252         1.949723
 H         1.049996         1.144785         1.719256
