19
Iteration:   101charge 0 multiplicity 1
 C        -0.142294        -0.737312        -0.180770
 C         1.312830        -0.105931        -0.101404
 C         1.732709         1.415876        -0.395472
 C         3.238259         0.678974        -0.221522
 C         4.099003         0.964089        -1.514723
 O         3.163862         0.086685        -2.302007
 C         2.685449        -0.581328        -0.857742
 O         3.367416         0.506446         1.251265
 C         2.007286        -0.244340         1.347729
 H        -0.103268        -1.614514        -0.898956
 H        -0.615531        -1.156209         0.702925
 H        -0.764075        -0.053542        -0.572230
 H         1.520269         1.820228        -1.425332
 H         1.521695         2.151107         0.415314
 H         3.983566         2.042330        -1.815250
 H         5.060416         0.578341        -1.653308
 H         2.926780        -1.594292        -0.755716
 H         2.171162        -1.253570         1.683377
 H         1.360132         0.332437         2.040964
