19
Iteration:  4718charge 0 multiplicity 1
 C        -0.019707        -0.701113        -0.067434
 C         1.289024        -0.003535        -0.200642
 C         1.715839         1.242558        -1.029349
 C         3.087989         0.742364        -0.399206
 C         4.195302         0.555773        -1.358237
 O         3.570085        -0.641391        -1.785718
 C         2.720681        -0.698244        -0.540687
 O         3.110618         0.958740         1.104088
 C         1.710838         0.543008         1.196889
 H        -0.686623         0.005765         0.368252
 H        -0.265851        -1.098303        -1.046651
 H         0.076310        -1.650596         0.548632
 H         1.609035         1.229905        -2.176751
 H         1.228626         2.121530        -0.650844
 H         4.347171         1.396353        -2.159032
 H         5.125195         0.289038        -0.855427
 H         3.163231        -1.382511         0.247069
 H         1.867575        -0.149205         1.952054
 H         1.004350         1.402927         1.292730
