19
Iteration:  2585charge 0 multiplicity 1
 C        -0.098843        -0.719051        -0.177592
 C         1.370235        -0.114783        -0.114480
 C         1.817202         1.202152        -0.949605
 C         3.189299         0.777860        -0.308008
 C         4.184928         0.590843        -1.433595
 O         3.426989        -0.632192        -1.841124
 C         2.798305        -0.647444        -0.475953
 O         3.072246         1.038936         1.027559
 C         1.675351         0.478184         1.282259
 H        -0.815052         0.014585        -0.523697
 H        -0.155908        -1.399123        -1.083935
 H        -0.438265        -1.355348         0.691673
 H         1.840802         1.085113        -2.110680
 H         1.286466         2.196547        -0.682745
 H         4.386351         1.412543        -2.064946
 H         5.238115         0.425594        -0.943697
 H         3.258966        -1.458590         0.098976
 H         1.727437        -0.248427         2.087915
 H         1.202335         1.420120         1.503722
