19
Iteration:  3893
 C         0.007064        -0.800820        -0.246948
 C         1.282190         0.054846        -0.157650
 C         1.721067         1.267015        -1.021198
 C         3.135990         0.881666        -0.363803
 C         4.244534         0.530988        -1.356973
 O         3.436956        -0.695377        -1.779186
 C         2.674918        -0.590890        -0.524175
 O         3.117760         1.060413         1.032333
 C         1.769884         0.390733         1.357161
 H        -0.970612        -0.336852        -0.448130
 H         0.250077        -1.398091        -1.126639
 H        -0.087672        -1.527845         0.640864
 H         1.689410         1.212228        -2.096752
 H         1.271342         2.232612        -0.482782
 H         4.344773         1.243774        -2.110679
 H         5.082313         0.050048        -0.864442
 H         3.195252        -1.315408         0.070878
 H         1.957922        -0.442308         1.988629
 H         1.119252         1.061473         1.970591
