19
Iteration:  3061
 C         0.015628        -0.835576        -0.223348
 C         1.292602         0.026954        -0.207030
 C         1.763690         1.298276        -0.967917
 C         3.144784         0.858260        -0.368002
 C         4.207992         0.509791        -1.374045
 O         3.424791        -0.703237        -1.789190
 C         2.703726        -0.671099        -0.467900
 O         3.075668         1.146334         1.085524
 C         1.829046         0.426138         1.283079
 H        -0.555845        -0.211733         0.434945
 H        -0.436899        -0.914759        -1.223185
 H         0.265606        -1.836846         0.036216
 H         1.642433         1.314919        -2.079601
 H         1.331079         2.352455        -0.582969
 H         4.450636         1.184555        -2.236958
 H         5.052117         0.211722        -0.892387
 H         2.806910        -1.680776        -0.011793
 H         1.695730        -0.516474         1.853228
 H         1.009912         1.076885         1.696454
