19
Iteration:  2201
 C        -0.008035        -0.707240        -0.291948
 C         1.390023        -0.101078        -0.194472
 C         1.727970         1.197591        -0.908508
 C         3.110439         0.786423        -0.311402
 C         4.150393         0.481312        -1.329171
 O         3.353682        -0.608428        -1.914125
 C         2.761107        -0.697809        -0.454833
 O         3.045477         1.245803         1.007824
 C         1.856045         0.382487         1.374875
 H        -0.691629         0.176955        -0.398518
 H         0.054114        -1.368965        -1.214195
 H        -0.446789        -1.281804         0.610651
 H         1.875580         1.078142        -1.943461
 H         1.421873         2.148170        -0.677659
 H         4.561619         1.218771        -2.052229
 H         5.029129        -0.037594        -0.679489
 H         3.311078        -1.533049         0.083097
 H         2.280775        -0.312829         2.131252
 H         1.110782         1.038283         1.852158
