19
Iteration:   650charge 0 multiplicity 1
 C        -0.013318        -0.722923        -0.237647
 C         1.380960        -0.011968        -0.235283
 C         1.683080         1.457601        -0.644136
 C         3.154840         0.779282        -0.261195
 C         4.071975         0.758429        -1.478025
 O         3.330722        -0.470486        -2.023964
 C         2.747543        -0.626974        -0.677562
 O         3.243228         0.708099         1.172814
 C         1.859257         0.162931         1.336717
 H        -0.901002        -0.009990        -0.149520
 H        -0.029995        -1.384034        -1.156616
 H         0.051026        -1.524014         0.608374
 H         1.498123         1.813915        -1.639228
 H         1.322787         2.133483         0.063745
 H         3.723301         1.575403        -2.198989
 H         5.136870         0.661290        -1.423280
 H         3.224776        -1.424264        -0.048935
 H         1.759050        -0.709582         1.932430
 H         1.181629         0.921279         1.821403
