19
Iteration:  2790charge 0 multiplicity 1
 C         0.024795        -0.830925        -0.325695
 C         1.384437        -0.052070        -0.114291
 C         1.861329         1.208273        -0.909819
 C         3.167419         0.839996        -0.320947
 C         4.182801         0.587155        -1.396268
 O         3.314278        -0.679342        -1.882038
 C         2.696007        -0.642416        -0.482950
 O         3.123823         1.146516         1.145997
 C         1.668692         0.462388         1.287103
 H        -0.850061        -0.101270        -0.388071
 H         0.210867        -1.516104        -1.157951
 H        -0.183071        -1.217514         0.640099
 H         1.749963         0.979703        -1.963188
 H         1.360731         2.120580        -0.676404
 H         4.392096         1.392167        -2.120715
 H         5.087098         0.075124        -1.220824
 H         3.198592        -1.482886        -0.023878
 H         1.915003        -0.455843         1.970093
 H         1.036512         1.284547         1.706380
