19
Iteration:  4434charge 0 multiplicity 1
 C        -0.045072        -0.754477        -0.217224
 C         1.329377        -0.035703        -0.152484
 C         1.725423         1.196364        -0.958487
 C         3.131003         0.821197        -0.371677
 C         4.335292         0.489017        -1.247962
 O         3.392915        -0.647697        -1.857974
 C         2.692761        -0.602108        -0.523463
 O         3.000865         1.255954         0.992819
 C         1.855733         0.309963         1.327482
 H        -0.847338        -0.030182        -0.368491
 H        -0.094143        -1.371693        -1.107494
 H        -0.183394        -1.302795         0.729410
 H         1.461117         0.979063        -2.010308
 H         1.415187         2.122366        -0.614901
 H         4.691958         1.239771        -2.077046
 H         5.180803         0.001088        -0.790647
 H         3.236792        -1.290885         0.053051
 H         2.231671        -0.629163         1.797496
 H         1.063414         0.886801         1.785303
