19
Iteration:  2581charge 0 multiplicity 1
 C        -0.097708        -0.751815        -0.148343
 C         1.336043        -0.089247        -0.125439
 C         1.795245         1.222875        -0.970524
 C         3.202482         0.775439        -0.305505
 C         4.200507         0.601807        -1.410336
 O         3.448230        -0.635650        -1.840163
 C         2.802180        -0.651658        -0.449485
 O         3.071960         1.012700         1.006388
 C         1.680305         0.479734         1.259471
 H        -0.889621         0.037360        -0.432046
 H        -0.129852        -1.337624        -1.037422
 H        -0.553968        -1.278523         0.649988
 H         1.822052         1.234862        -2.069626
 H         1.289787         2.174727        -0.688143
 H         4.431658         1.469650        -2.102713
 H         5.193276         0.349435        -1.040149
 H         3.280971        -1.451437         0.138148
 H         1.794715        -0.270000         2.018874
 H         1.167220         1.405031         1.536987
