19
Iteration:    36
 C        -0.097899        -0.715282        -0.263365
 C         1.310571        -0.024017        -0.083750
 C         1.688692         1.400029        -0.217868
 C         3.176498         0.868650        -0.197100
 C         4.074017         0.913688        -1.537327
 O         3.183475        -0.010915        -2.200495
 C         2.568627        -0.417953        -0.987983
 O         3.338652         0.440149         1.196811
 C         2.167509        -0.361590         1.297912
 H        -0.211196        -1.366610         0.682824
 H        -0.992966        -0.094661        -0.520218
 H         0.020943        -1.433663        -0.984422
 H         1.567378         1.715889        -1.290055
 H         1.437795         2.194686         0.550103
 H         4.134379         1.933165        -2.083781
 H         4.995527         0.420797        -1.312795
 H         2.820343        -1.417712        -0.856901
 H         2.453091        -1.349256         1.473403
 H         1.520076        -0.007761         2.098086
