19
Iteration:  2474
 C         0.046396        -0.768295        -0.324255
 C         1.324116        -0.073198        -0.101769
 C         1.769309         1.253572        -0.875936
 C         3.194787         0.805619        -0.352264
 C         4.202716         0.544290        -1.483376
 O         3.402235        -0.676914        -1.731760
 C         2.725893        -0.670416        -0.432055
 O         3.096390         1.033916         1.036100
 C         1.692120         0.571522         1.256002
 H        -0.743961        -0.264039         0.328537
 H        -0.352108        -0.771413        -1.349032
 H         0.265658        -1.844613        -0.114430
 H         1.710569         1.037957        -1.983925
 H         1.410117         2.321513        -0.481846
 H         3.909148         1.213535        -2.294658
 H         5.347541         0.416166        -1.352111
 H         3.065822        -1.539659         0.139807
 H         1.667432        -0.169375         2.133219
 H         1.035977         1.346511         1.704166
