19
Iteration:  4771charge 0 multiplicity 1
 C         0.090710        -0.694688        -0.352891
 C         1.342090        -0.072642        -0.167034
 C         1.809717         1.157016        -0.877357
 C         3.145253         0.835176        -0.333190
 C         4.211386         0.463171        -1.332980
 O         3.284649        -0.623407        -1.777135
 C         2.720028        -0.724281        -0.462510
 O         2.998348         1.286331         0.971995
 C         1.872073         0.368739         1.303955
 H        -0.588850         0.155020        -0.165895
 H        -0.137009        -1.241727        -1.259552
 H        -0.194084        -1.299938         0.529983
 H         1.842425         1.077025        -2.118760
 H         1.156886         2.030065        -0.611956
 H         4.344102         1.271744        -2.140282
 H         5.134889         0.012249        -0.832885
 H         2.921139        -1.777910         0.052040
 H         2.284725        -0.389421         2.024977
 H         1.163478         0.992966         1.897818
