19
Iteration:   416charge 0 multiplicity 1
 C        -0.007482        -0.704428        -0.159714
 C         1.376850        -0.100581        -0.059094
 C         1.667473         1.394760        -0.597122
 C         3.120919         0.841928        -0.358746
 C         4.095852         0.887223        -1.447361
 O         3.342144        -0.271527        -2.127529
 C         2.639172        -0.507043        -0.789758
 O         3.296237         0.491105         1.149483
 C         1.897562         0.011438         1.373110
 H        -0.764668         0.123561         0.164076
 H        -0.329736        -1.087353        -1.168076
 H        -0.158447        -1.520128         0.568746
 H         1.491383         1.449677        -1.685472
 H         1.318680         2.257126        -0.065851
 H         4.091528         1.824116        -2.015009
 H         5.186582         0.607275        -1.210668
 H         3.104753        -1.470648        -0.517880
 H         1.972005        -0.806815         2.021051
 H         1.151772         0.642190         1.844674
