19
Iteration:   252
 C        -0.018857        -0.660171        -0.272627
 C         1.345415        -0.113587        -0.111379
 C         1.654325         1.370090        -0.425298
 C         3.185075         0.796253        -0.257471
 C         4.087571         0.777251        -1.454263
 O         3.217135        -0.129640        -2.132366
 C         2.578758        -0.523847        -0.851441
 O         3.261174         0.724269         1.169046
 C         2.126814        -0.232298         1.314803
 H        -0.317420        -1.184886         0.657371
 H        -0.626035         0.258043        -0.206446
 H        -0.430758        -1.098515        -1.189347
 H         1.357079         1.628666        -1.440051
 H         1.478619         2.135748         0.219775
 H         4.265236         1.727443        -1.937124
 H         5.113766         0.305740        -1.195647
 H         2.834459        -1.575838        -0.632735
 H         2.453207        -1.282672         1.490148
 H         1.465661         0.032819         2.162193
