19
Iteration:  4903charge 0 multiplicity 1
 C        -0.067685        -0.697375        -0.225117
 C         1.344705        -0.115538        -0.150274
 C         1.665434         1.291941        -0.976740
 C         3.129699         0.830715        -0.376687
 C         4.247427         0.522997        -1.259033
 O         3.414676        -0.674966        -1.743763
 C         2.701787        -0.647696        -0.492000
 O         3.100477         1.161480         0.964023
 C         1.896804         0.376453         1.238942
 H        -0.930504        -0.077040        -0.146818
 H         0.013891        -1.064401        -1.250948
 H        -0.263063        -1.682662         0.213481
 H         1.365733         1.087140        -2.031489
 H         1.107095         2.165526        -0.464776
 H         4.520775         1.184151        -2.108478
 H         5.094381         0.189299        -0.685529
 H         3.089931        -1.484300         0.131186
 H         2.271066        -0.469469         1.800769
 H         1.227413         1.053203         1.740137
