19
Iteration:  4202charge 0 multiplicity 1
 C         0.018238        -0.845702        -0.307742
 C         1.302653         0.022207        -0.183082
 C         1.654189         1.331178        -0.848010
 C         3.116664         0.834326        -0.415235
 C         4.230879         0.490009        -1.371360
 O         3.482200        -0.727121        -1.698027
 C         2.642397        -0.594670        -0.534620
 O         3.138923         1.125143         0.998479
 C         1.804499         0.414146         1.265432
 H        -0.843747        -0.122746        -0.153226
 H        -0.228545        -1.242605        -1.341750
 H        -0.169874        -1.578392         0.455832
 H         1.534305         1.399963        -1.932063
 H         1.420232         2.209016        -0.252907
 H         4.490214         1.302690        -2.067173
 H         5.175311         0.116318        -0.852272
 H         2.852877        -1.395486         0.114987
 H         2.173880        -0.470577         1.795096
 H         1.181317         1.015524         1.989688
