19
Iteration:  2743charge 0 multiplicity 1
 C        -0.075379        -0.758241        -0.313687
 C         1.309204        -0.052268        -0.190706
 C         1.684006         1.215976        -0.862584
 C         3.119749         0.824491        -0.343839
 C         4.226644         0.514673        -1.341570
 O         3.456805        -0.731784        -1.816123
 C         2.732586        -0.579139        -0.532649
 O         3.119072         1.210654         0.997803
 C         1.801108         0.348282         1.381679
 H        -0.846386         0.000402         0.002979
 H        -0.124967        -0.962898        -1.387170
 H        -0.236762        -1.589867         0.410970
 H         1.765223         1.234975        -1.958954
 H         1.333775         2.138944        -0.549954
 H         4.507802         1.152562        -2.262564
 H         5.131121         0.450012        -0.724825
 H         3.145659        -1.423021         0.044782
 H         2.225416        -0.471908         1.985184
 H         1.064888         1.062223         1.801996
