19
Iteration:  4657
 C         0.101254        -0.695986        -0.400538
 C         1.351399        -0.083182        -0.089298
 C         1.753724         1.126636        -0.913300
 C         3.145494         0.831730        -0.370152
 C         4.266710         0.452590        -1.342048
 O         3.251963        -0.648281        -1.798414
 C         2.711686        -0.642848        -0.483150
 O         3.051874         1.250080         0.975506
 C         1.830862         0.444990         1.389192
 H        -0.752644        -0.112417         0.061170
 H        -0.132398        -0.758909        -1.496497
 H        -0.054612        -1.694236         0.050755
 H         1.575507         0.913307        -1.899170
 H         1.199305         2.053032        -0.530091
 H         4.660274         1.145944        -2.073538
 H         5.071123        -0.109496        -0.785153
 H         3.193641        -1.480252         0.020041
 H         2.190661        -0.283011         2.230748
 H         1.005045         0.917633         1.927773
