19
Iteration:  1182
 C        -0.109734        -0.709581        -0.252528
 C         1.314262        -0.081853        -0.072740
 C         1.770979         1.236896        -0.900033
 C         3.102041         0.869764        -0.361705
 C         4.191522         0.551189        -1.354630
 O         3.435126        -0.616762        -1.867436
 C         2.728864        -0.646496        -0.586977
 O         3.100020         1.171035         1.087205
 C         1.860010         0.247567         1.283792
 H        -0.285012        -1.068674        -1.274989
 H        -0.217558        -1.465994         0.417811
 H        -0.864312         0.033423        -0.033000
 H         1.571919         0.985549        -1.969978
 H         1.442985         2.324875        -0.616508
 H         4.470891         1.189769        -2.225895
 H         5.133901         0.309289        -0.761329
 H         3.270801        -1.433861        -0.055739
 H         2.223082        -0.674182         1.837756
 H         1.150321         0.745937         1.933832
