19
Iteration:  3557
 C         0.009729        -0.744871        -0.399216
 C         1.363792        -0.091517        -0.159069
 C         1.709677         1.196474        -0.895414
 C         3.125386         0.854876        -0.357567
 C         4.159464         0.467501        -1.371558
 O         3.368051        -0.638472        -1.784442
 C         2.712120        -0.655395        -0.376346
 O         3.175008         1.179365         0.976406
 C         1.789594         0.444036         1.348369
 H        -0.752154         0.019187        -0.126175
 H         0.034871        -1.211786        -1.364111
 H        -0.123224        -1.620494         0.276334
 H         1.646957         1.260471        -1.921509
 H         1.184121         2.097465        -0.551674
 H         4.536730         1.118226        -2.267970
 H         4.954353         0.139317        -0.752200
 H         3.135271        -1.506404         0.236000
 H         1.982553        -0.350436         2.051446
 H         1.031097         1.169836         1.707790
