19
Iteration:    74
 C         0.004696        -0.615489        -0.178601
 C         1.374377        -0.213299        -0.087735
 C         1.822022         1.218237        -0.402952
 C         3.132579         0.687265        -0.240142
 C         4.047997         0.972973        -1.376830
 O         3.040294         0.174517        -2.123557
 C         2.693814        -0.561532        -0.999253
 O         3.287437         0.465418         1.106641
 C         2.044166        -0.158986         1.318890
 H        -0.017642        -1.674918         0.024980
 H        -0.676019        -0.325615         0.640708
 H        -0.471802        -0.393342        -1.268921
 H         1.615164         1.555330        -1.392949
 H         1.617124         2.078294         0.214851
 H         4.241261         1.964207        -1.749729
 H         5.071545         0.472162        -1.561144
 H         3.062262        -1.673753        -0.947492
 H         2.252858        -1.207328         1.764013
 H         1.376124         0.439536         1.969564
