19
Iteration:  4052charge 0 multiplicity 1
 C         0.012349        -0.705735        -0.204410
 C         1.372674        -0.146031        -0.181458
 C         1.851040         1.159921        -0.958195
 C         3.162835         0.731769        -0.283196
 C         4.265682         0.513962        -1.447692
 O         3.307929        -0.539379        -1.822798
 C         2.793465        -0.677448        -0.468532
 O         3.015466         1.188659         1.096241
 C         1.710926         0.432259         1.279460
 H        -0.668528         0.095634        -0.222090
 H        -0.166553        -1.307752        -1.126379
 H        -0.219031        -1.358694         0.572971
 H         1.919258         1.236975        -2.046933
 H         1.305044         2.093489        -0.690988
 H         4.299616         1.495555        -2.095637
 H         5.155975        -0.041652        -1.309239
 H         3.200340        -1.705092        -0.149689
 H         1.761557        -0.332481         2.110313
 H         0.964321         1.154203         1.586453
