19
Iteration:  1628
 C        -0.090299        -0.734778        -0.184983
 C         1.337994        -0.129649        -0.192865
 C         1.713696         1.259418        -0.940635
 C         3.147634         0.873006        -0.339975
 C         4.313243         0.440502        -1.295660
 O         3.329182        -0.524605        -1.877565
 C         2.767334        -0.676189        -0.568846
 O         3.053123         1.151545         1.087997
 C         1.850737         0.329757         1.285815
 H        -0.163924        -1.446897        -1.011334
 H        -0.192466        -1.099741         0.794139
 H        -0.714335         0.075919        -0.428460
 H         1.703636         1.221557        -2.069825
 H         1.169818         2.219712        -0.639916
 H         4.566377         1.097253        -2.200260
 H         5.128253         0.086258        -0.789694
 H         3.206382        -1.502449        -0.054946
 H         2.322701        -0.535273         1.879592
 H         1.123239         0.932493         1.829420
