19
Iteration:   558
 C        -0.061965        -0.749312        -0.145267
 C         1.326273        -0.056295        -0.149169
 C         1.754370         1.361349        -0.693612
 C         3.165711         0.805317        -0.287821
 C         4.134480         0.742487        -1.473244
 O         3.309344        -0.256889        -2.100547
 C         2.702236        -0.554197        -0.716929
 O         3.175865         0.684383         1.189430
 C         1.920234         0.065756         1.307256
 H        -0.071284        -1.594513        -0.891347
 H        -0.079423        -1.212965         0.874482
 H        -0.925463        -0.159578        -0.151755
 H         1.742822         1.573240        -1.782275
 H         1.365621         2.251594        -0.137281
 H         4.190397         1.601433        -2.020206
 H         5.120895         0.417860        -1.155522
 H         3.104080        -1.496631        -0.247944
 H         1.942015        -0.925468         1.895060
 H         1.306298         0.744536         1.921125
