19
Iteration:  3544charge 0 multiplicity 1
 C         0.007447        -0.705659        -0.386419
 C         1.347738        -0.157108        -0.055581
 C         1.733039         1.114786        -0.946545
 C         3.117647         0.813142        -0.364246
 C         4.236051         0.462013        -1.320286
 O         3.273566        -0.584645        -1.819433
 C         2.755559        -0.652411        -0.472098
 O         3.095608         1.243945         1.058629
 C         1.878613         0.427596         1.307887
 H        -0.823008         0.111822        -0.565823
 H        -0.086921        -1.064229        -1.436903
 H        -0.436217        -1.438489         0.380282
 H         1.654853         0.771867        -1.959292
 H         1.382721         2.045347        -0.570335
 H         4.579084         1.135062        -2.173563
 H         5.064103         0.004614        -0.866693
 H         3.415952        -1.275558         0.229350
 H         2.117492        -0.185990         2.150173
 H         1.064016         1.142214         1.666625
