19
Iteration:  1257
 C         0.086322        -0.825085        -0.222250
 C         1.312600         0.068766        -0.196164
 C         1.710160         1.254679        -0.911538
 C         3.150209         0.798060        -0.335622
 C         4.207490         0.475465        -1.368670
 O         3.383397        -0.573024        -1.831168
 C         2.692860        -0.602775        -0.531679
 O         3.127489         1.053727         1.076737
 C         1.735175         0.393489         1.265331
 H        -0.462005        -0.460326        -1.094250
 H         0.456899        -1.824170        -0.295297
 H        -0.650290        -0.648797         0.588813
 H         1.571729         1.320511        -1.975887
 H         1.518588         2.153511        -0.408737
 H         4.407174         1.247152        -2.161549
 H         5.036108         0.084007        -0.911492
 H         2.903664        -1.483289         0.133664
 H         1.821718        -0.557850         1.834455
 H         1.239163         1.149794         1.797270
