19
Iteration:  2388
 C        -0.057653        -0.658745        -0.141569
 C         1.310340        -0.128964        -0.150942
 C         1.727046         1.161787        -0.986230
 C         3.131546         0.768388        -0.355815
 C         4.249606         0.572367        -1.322270
 O         3.474979        -0.594392        -1.830824
 C         2.727768        -0.668165        -0.556886
 O         3.059424         1.123467         1.021774
 C         1.801600         0.402389         1.268394
 H        -0.796042         0.131097        -0.077424
 H        -0.181598        -1.384431        -0.956062
 H        -0.360532        -1.222407         0.797595
 H         1.728300         1.148427        -2.064059
 H         1.461883         2.148243        -0.750696
 H         4.372152         1.304825        -2.073469
 H         5.174186         0.122169        -0.925937
 H         3.229696        -1.503943        -0.021510
 H         1.843624        -0.336645         2.158951
 H         1.052154         1.158366         1.627929
