19
Iteration:  1869
 C        -0.063051        -0.852192        -0.341564
 C         1.291523        -0.046269        -0.137082
 C         1.758815         1.294741        -0.878935
 C         3.171338         0.874320        -0.394420
 C         4.280083         0.466336        -1.357224
 O         3.404287        -0.713862        -1.776720
 C         2.662896        -0.607208        -0.492708
 O         3.122225         1.145944         1.024228
 C         1.768688         0.486096         1.308777
 H        -0.664545        -0.816385         0.594629
 H        -0.762502        -0.503465        -1.026629
 H         0.282912        -1.809031        -0.548008
 H         1.712371         1.245816        -1.991649
 H         1.305888         2.346563        -0.581860
 H         4.461495         1.132144        -2.154695
 H         5.167248         0.081012        -0.790990
 H         3.181526        -1.395731         0.113884
 H         2.165847        -0.238273         1.990645
 H         1.036700         1.075431         1.782256
