19
Iteration:  1515charge 0 multiplicity 1
 C        -0.108559        -0.325924        -0.201816
 C         1.394393         0.148874         0.086102
 C         2.090992        -0.538850         1.417227
 C         3.587595        -0.360361         0.981187
 C         3.245131         0.381765        -0.301897
 C         3.718075         1.333494        -1.394438
 O         2.474709         2.101377        -1.199096
 C         2.172872         1.419257         0.056416
 O         2.226912        -0.458534        -0.931606
 H         0.022290        -1.320689        -0.532320
 H        -0.486600        -0.327777         0.772277
 H        -0.623590         0.314521        -0.907834
 H         1.725223        -0.097965         2.333042
 H         1.807785        -1.571933         1.325538
 H         4.060707         0.440786         1.577688
 H         4.164829        -1.242532         0.960565
 H         4.638786         1.918519        -1.119258
 H         3.729343         0.860174        -2.365833
 H         2.073550         2.156503         0.829856
