19
Iteration:  2858charge 0 multiplicity 1
 C        -0.187889        -0.138845        -0.077205
 C         1.322368         0.011898         0.077905
 C         2.063152        -0.472512         1.409287
 C         3.564146        -0.166518         1.111843
 C         3.240345         0.390619        -0.275470
 C         3.882294         1.356288        -1.350831
 O         2.481415         1.992959        -1.398843
 C         2.121318         1.312130        -0.136338
 O         2.274953        -0.636975        -0.869949
 H        -0.461466        -0.825276         0.642373
 H        -0.631225         0.804406         0.165161
 H        -0.301655        -0.313572        -1.117947
 H         1.510144         0.006082         2.238433
 H         1.979927        -1.600480         1.583983
 H         4.186219         0.657525         1.600582
 H         4.134344        -1.080933         1.106016
 H         4.560455         2.178136        -0.849922
 H         4.270077         1.060054        -2.369409
 H         2.125695         1.999140         0.679264
