19
Iteration:  4515
 C        -0.112725        -0.115866        -0.141649
 C         1.357855         0.178758         0.097877
 C         1.873896         0.204635         1.616471
 C         3.467133         0.241710         1.409823
 C         3.345827         0.427804        -0.131455
 C         3.864977         0.866107        -1.524965
 O         2.556774         1.378304        -1.855777
 C         2.145326         1.388937        -0.443069
 O         2.343472        -0.772407        -0.495995
 H        -0.340860        -1.157774         0.222840
 H        -0.865021         0.546268         0.281152
 H        -0.375789        -0.144554        -1.262212
 H         1.356876         1.014510         2.049366
 H         1.577940        -0.690068         2.223019
 H         3.903542         1.153530         1.997481
 H         4.099176        -0.595846         1.729202
 H         4.611686         1.563380        -1.598748
 H         4.092847        -0.026537        -2.101386
 H         1.784285         2.415720        -0.020726
