19
Iteration:  3887
 C        -0.091960        -0.228648        -0.191084
 C         1.344581         0.205367         0.139699
 C         1.907011         0.160235         1.634751
 C         3.431758         0.236820         1.368152
 C         3.233348         0.466270        -0.126758
 C         3.827046         0.714890        -1.446759
 O         2.625004         1.411945        -1.821144
 C         2.149893         1.519317        -0.470643
 O         2.336423        -0.680263        -0.519192
 H        -0.515143        -0.618711         0.794935
 H        -0.511538         0.611816        -0.714702
 H         0.049932        -1.006145        -0.956086
 H         1.476799         1.033007         2.273844
 H         1.695392        -0.792995         2.218540
 H         3.974942         1.057652         1.801380
 H         3.968709        -0.632919         1.632278
 H         4.643455         1.396633        -1.620601
 H         3.860606        -0.091217        -2.092337
 H         1.905969         2.528971        -0.288632
