19
Iteration:  2970
 C        -0.122723        -0.126340        -0.204185
 C         1.403251         0.050218         0.098679
 C         1.974789        -0.342263         1.495831
 C         3.549243        -0.152397         1.114367
 C         3.342153         0.381670        -0.286134
 C         3.779534         1.206732        -1.438542
 O         2.407776         1.915603        -1.416794
 C         2.154486         1.314330        -0.047033
 O         2.348305        -0.602544        -0.819712
 H        -0.472163         0.483080        -1.050911
 H        -0.599464        -1.073770        -0.297862
 H        -0.642600         0.116768         0.728423
 H         1.592771         0.353074         2.337295
 H         1.634162        -1.372167         1.721471
 H         3.981622         0.694229         1.722910
 H         4.308908        -0.998865         1.290033
 H         4.643766         1.997668        -1.228103
 H         3.941901         0.809318        -2.472770
 H         2.094472         2.093674         0.727849
