19
Iteration:   178
 C        -0.019694        -0.246713        -0.213911
 C         1.396516         0.105434         0.170860
 C         2.072392        -0.775321         1.322737
 C         3.573425        -0.468784         0.868055
 C         3.223903         0.427097        -0.275415
 C         3.647331         1.398244        -1.391396
 O         2.452677         2.190709        -1.098378
 C         2.140285         1.435536         0.111881
 O         2.295162        -0.387156        -0.961691
 H         0.028935        -0.019118        -1.283696
 H         0.003925        -1.356095        -0.121649
 H        -0.807760         0.202999         0.429616
 H         1.985400        -0.434474         2.391584
 H         1.669966        -1.770397         1.255944
 H         3.918569         0.125115         1.751658
 H         4.346133        -1.228869         0.650759
 H         4.444470         2.178765        -1.256092
 H         3.509112         0.902471        -2.349211
 H         2.070471         2.156010         0.879082
