19
Iteration:  2986charge 0 multiplicity 1
 C        -0.097486        -0.095699        -0.070853
 C         1.373088         0.070185         0.073417
 C         2.037652        -0.406869         1.436238
 C         3.548730        -0.119259         1.241018
 C         3.251329         0.385838        -0.225763
 C         3.754887         1.234717        -1.383096
 O         2.502157         1.868218        -1.476217
 C         2.088786         1.396122        -0.189386
 O         2.344130        -0.612474        -0.881997
 H        -0.599587         0.760739        -0.557854
 H        -0.249160        -1.066982        -0.717472
 H        -0.647035        -0.113351         0.906743
 H         1.609373         0.009108         2.275845
 H         1.957543        -1.485558         1.632106
 H         4.070263         0.524774         1.930565
 H         4.022360        -1.053558         1.105231
 H         4.431942         1.984225        -1.240810
 H         3.978697         0.632434        -2.250448
 H         1.951691         2.235128         0.555688
