19
Iteration:  1523
 C        -0.064380        -0.284910        -0.168014
 C         1.340412         0.061289         0.077198
 C         2.012830        -0.525811         1.385176
 C         3.593724        -0.354257         1.019649
 C         3.295981         0.338175        -0.375100
 C         3.636419         1.414680        -1.371061
 O         2.502607         2.183290        -1.219951
 C         2.180148         1.406123         0.073861
 O         2.272492        -0.530652        -0.926999
 H         0.064064        -1.277369        -0.579994
 H        -0.659485        -0.303374         0.776544
 H        -0.527107         0.300121        -0.939956
 H         2.036117         0.077366         2.360385
 H         1.627830        -1.600276         1.593310
 H         4.071960         0.405555         1.519544
 H         4.124663        -1.292682         1.096739
 H         4.669437         1.819556        -1.319440
 H         3.637409         0.799174        -2.340504
 H         2.156638         2.081409         0.977746
