19
Iteration:   994
 C        -0.150860        -0.168975        -0.156775
 C         1.375902        -0.029773         0.043174
 C         2.105899        -0.476710         1.409695
 C         3.600358        -0.398156         1.011867
 C         3.281821         0.335825        -0.306886
 C         3.730155         1.469406        -1.366804
 O         2.388669         2.104121        -1.117221
 C         2.149461         1.340188        -0.043495
 O         2.338395        -0.543095        -0.993500
 H        -0.556048        -1.186625        -0.093072
 H        -0.736472         0.405174         0.547266
 H        -0.421045         0.178270        -1.149479
 H         1.917305         0.155536         2.258074
 H         1.684136        -1.466114         1.653213
 H         4.184310         0.195859         1.710386
 H         4.200873        -1.249431         0.735727
 H         4.475723         2.187089        -1.086993
 H         3.924743         1.145412        -2.384855
 H         2.127413         1.901705         0.985999
