19
Iteration:   938charge 0 multiplicity 1
 C        -0.145618        -0.188644        -0.201789
 C         1.344632         0.020181         0.078163
 C         2.123546        -0.634311         1.334592
 C         3.660098        -0.316199         1.059621
 C         3.332679         0.389855        -0.253785
 C         3.745807         1.383103        -1.369011
 O         2.458011         1.962894        -1.295857
 C         2.126414         1.414754         0.132166
 O         2.184024        -0.339845        -0.939825
 H        -0.184076        -1.168877        -0.638237
 H        -0.615797        -0.338015         0.787886
 H        -0.745339         0.472047        -0.802909
 H         1.838982        -0.075406         2.177868
 H         1.864943        -1.786957         1.256184
 H         4.172545         0.217031         1.817647
 H         4.392867        -1.123372         0.763810
 H         4.538950         2.118294        -1.258888
 H         3.772237         0.787971        -2.308748
 H         1.985441         2.216166         1.110873
