19
Iteration:  2786
 C        -0.075377        -0.219191        -0.247544
 C         1.408490         0.088540         0.086112
 C         1.999415        -0.477872         1.456048
 C         3.638633        -0.333676         1.116825
 C         3.258328         0.419521        -0.241739
 C         3.734514         1.327043        -1.448690
 O         2.411409         2.001308        -1.332881
 C         2.151057         1.429932        -0.012910
 O         2.270857        -0.496709        -0.847432
 H        -0.636900         0.470096         0.459640
 H        -0.243945        -0.296917        -1.325052
 H        -0.136483        -1.302881         0.064795
 H         1.728276         0.113079         2.334896
 H         1.695104        -1.481028         1.637945
 H         4.207746         0.058060         1.891272
 H         4.023270        -1.356418         0.895542
 H         4.557183         1.997183        -1.448884
 H         3.678731         0.774619        -2.364028
 H         2.373054         2.250491         0.736722
