19
Iteration:  2993
 C        -0.100319        -0.120064        -0.063588
 C         1.394279         0.113626         0.128682
 C         2.067924        -0.444717         1.395382
 C         3.511214        -0.130699         1.244082
 C         3.266513         0.447098        -0.222106
 C         3.782556         1.193927        -1.357075
 O         2.515803         1.873912        -1.543940
 C         2.053970         1.404764        -0.182023
 O         2.313440        -0.620887        -0.869961
 H        -0.645177         0.760341        -0.403973
 H        -0.436512        -0.905939        -0.658851
 H        -0.516812        -0.423020         0.881291
 H         1.625911         0.051861         2.322276
 H         1.845503        -1.480085         1.483348
 H         3.926210         0.445245         2.059535
 H         4.211255        -0.997568         1.046904
 H         4.529414         2.072322        -1.168858
 H         4.085608         0.690888        -2.281182
 H         1.943024         2.269176         0.506908
