19
Iteration:   227
 C        -0.130842        -0.132124        -0.098740
 C         1.376061        -0.048616         0.053497
 C         2.134747        -0.614925         1.270229
 C         3.589881        -0.355522         0.898399
 C         3.233381         0.391195        -0.356263
 C         3.773005         1.525783        -1.156286
 O         2.424076         2.043427        -1.194255
 C         2.091519         1.277946         0.118368
 O         2.280526        -0.468698        -1.070055
 H        -0.563004         0.830409        -0.127119
 H        -0.257115        -0.641591        -1.032820
 H        -0.336690        -0.790123         0.680561
 H         1.931642         0.075488         2.084551
 H         1.845428        -1.598825         1.690548
 H         4.098708         0.323594         1.583794
 H         4.212521        -1.241346         0.871815
 H         4.424509         2.148283        -0.609061
 H         3.972887         1.301541        -2.215066
 H         2.126316         1.976391         1.037500
