19
Iteration:  2082charge 0 multiplicity 1
 C        -0.131086        -0.221999        -0.161333
 C         1.316288         0.039039         0.083139
 C         2.083358        -0.431323         1.401314
 C         3.612163        -0.339217         0.959918
 C         3.296713         0.362304        -0.381032
 C         3.748747         1.391963        -1.360446
 O         2.431466         2.127574        -1.210723
 C         2.109150         1.410311        -0.037602
 O         2.324846        -0.624693        -0.866963
 H        -0.047825        -1.054208        -0.883900
 H        -0.692060        -0.397901         0.741244
 H        -0.769699         0.489552        -0.621044
 H         1.992975         0.423840         2.196952
 H         1.791972        -1.392616         1.911261
 H         4.149730         0.179998         1.892537
 H         3.811815        -1.470976         0.886792
 H         4.725134         1.884034        -0.973039
 H         3.986260         0.879840        -2.337574
 H         2.072395         1.988665         0.873177
