19
Iteration:  3693
 C        -0.161882        -0.080067        -0.092198
 C         1.340194         0.191687         0.126469
 C         1.896049         0.057360         1.586895
 C         3.443423         0.185632         1.372717
 C         3.295822         0.326106        -0.169115
 C         3.849915         1.064326        -1.464647
 O         2.589109         1.435317        -1.861513
 C         2.133300         1.323922        -0.420340
 O         2.370328        -0.751838        -0.574100
 H        -0.124201        -0.857536        -0.909273
 H        -0.623515        -0.455765         0.805246
 H        -0.754760         0.826705        -0.461577
 H         1.436307         0.843180         2.293833
 H         1.647287        -0.892623         1.922370
 H         3.876966         1.146113         1.805992
 H         3.995242        -0.767766         1.687482
 H         4.606069         1.836418        -1.144919
 H         4.289130         0.334182        -2.069893
 H         2.290036         2.301322         0.245329
