19
Iteration:  2285charge 0 multiplicity 1
 C        -0.150197        -0.168390        -0.055329
 C         1.403315         0.025204         0.050375
 C         2.017788        -0.570273         1.402967
 C         3.559153        -0.277804         1.008036
 C         3.320207         0.394165        -0.291865
 C         3.783521         1.434753        -1.349641
 O         2.449844         2.023298        -1.289344
 C         2.105368         1.370383        -0.034643
 O         2.297758        -0.518608        -0.962186
 H        -0.202079        -1.121966        -0.614265
 H        -0.652443        -0.386293         0.901155
 H        -0.403674         0.706558        -0.728467
 H         1.829365        -0.092816         2.308542
 H         1.829735        -1.611823         1.422655
 H         3.972638         0.213237         1.852522
 H         4.048713        -1.297505         0.960259
 H         4.571415         2.157057        -0.907872
 H         4.041142         0.945461        -2.315291
 H         2.078626         2.025845         0.874331
