19
Iteration:  4543
 C        -0.069314        -0.116156        -0.055848
 C         1.379554         0.237784         0.147926
 C         1.831570         0.124037         1.603591
 C         3.372834         0.227704         1.325559
 C         3.329261         0.443618        -0.157845
 C         3.867088         0.865142        -1.483489
 O         2.546429         1.239754        -1.944031
 C         2.197313         1.439854        -0.469021
 O         2.364760        -0.655162        -0.436223
 H        -0.135056        -1.147603        -0.267211
 H        -0.852272         0.162386         0.689098
 H        -0.470317         0.410468        -0.888752
 H         1.129554         0.797897         2.238279
 H         1.698890        -0.848031         2.009868
 H         3.790922         1.027190         1.872550
 H         3.962680        -0.645510         1.609101
 H         4.529915         1.871934        -1.449782
 H         4.380982         0.014483        -2.007738
 H         2.040675         2.417329        -0.165080
