19
Iteration:  2716charge 0 multiplicity 1
 C        -0.099249        -0.199524        -0.000011
 C         1.379743         0.138921         0.069620
 C         1.987579        -0.547424         1.351369
 C         3.567712        -0.253894         1.022242
 C         3.248173         0.361184        -0.286658
 C         3.799460         1.409013        -1.329239
 O         2.444215         1.950969        -1.363174
 C         2.131379         1.350012        -0.048026
 O         2.338461        -0.522198        -0.927825
 H        -0.472672         0.726073        -0.351127
 H        -0.277967        -1.006767        -0.721602
 H        -0.685829        -0.509321         0.866970
 H         1.704947        -0.024515         2.305257
 H         1.671000        -1.661884         1.445603
 H         4.000762         0.426216         1.838977
 H         4.154345        -1.140221         0.878648
 H         4.513015         2.009792        -0.836551
 H         4.189105         1.188810        -2.353430
 H         2.050229         2.135854         0.718675
