19
Iteration:  4452charge 0 multiplicity 1
 C        -0.075531        -0.243861        -0.106906
 C         1.332602         0.187588         0.058894
 C         1.883430         0.223737         1.571268
 C         3.441156         0.300176         1.379726
 C         3.279439         0.348474        -0.198020
 C         3.869093         0.739587        -1.510014
 O         2.592184         1.540474        -1.770557
 C         2.151750         1.427050        -0.433100
 O         2.305016        -0.749466        -0.484904
 H        -0.378136        -0.610875         0.900627
 H        -0.578101         0.576180        -0.493751
 H        -0.077570        -1.059142        -0.850959
 H         1.336027         1.022863         2.081204
 H         1.507161        -0.749818         2.075065
 H         3.978141         1.142515         1.791752
 H         3.945781        -0.590278         1.718853
 H         4.780891         1.542281        -1.463722
 H         4.028948        -0.049462        -2.280366
 H         2.069068         2.410467        -0.043440
