19
Iteration:  2365
 C        -0.048918        -0.245218        -0.222401
 C         1.345592         0.128413         0.161700
 C         2.028248        -0.557385         1.390659
 C         3.564927        -0.344068         1.005032
 C         3.302916         0.480182        -0.174474
 C         3.699534         1.272171        -1.512167
 O         2.441156         2.073224        -1.254685
 C         2.151479         1.424326         0.011429
 O         2.311375        -0.472967        -0.868980
 H         0.037478        -0.616981        -1.279427
 H        -0.211619        -0.959561         0.600776
 H        -0.854206         0.466150        -0.037564
 H         1.756502        -0.221718         2.362411
 H         1.827905        -1.624818         1.395869
 H         4.182747         0.122063         1.749180
 H         3.808646        -1.322538         0.851569
 H         4.633280         1.947488        -1.492799
 H         3.734749         0.663556        -2.445586
 H         2.064619         2.158359         0.855050
