19
Iteration:  2793charge 0 multiplicity 1
 C        -0.034613        -0.212671        -0.248947
 C         1.390108         0.104110         0.135988
 C         1.993964        -0.459858         1.455819
 C         3.590064        -0.398301         1.103701
 C         3.277848         0.368388        -0.208838
 C         3.684267         1.359871        -1.508917
 O         2.425069         1.994635        -1.352443
 C         2.168989         1.450119        -0.002471
 O         2.323026        -0.481269        -0.824804
 H        -0.870417         0.146379         0.325425
 H        -0.426306        -0.027141        -1.247800
 H        -0.070751        -1.323997        -0.101861
 H         1.692799         0.100016         2.364515
 H         1.625929        -1.538938         1.690363
 H         4.274651         0.275594         1.795825
 H         4.014531        -1.359925         0.910340
 H         4.520289         2.106519        -1.422650
 H         3.701019         0.716981        -2.424008
 H         2.268817         2.261392         0.726764
