19
Iteration:    78
 C        -0.090478        -0.269104        -0.119946
 C         1.375514         0.062178         0.122934
 C         2.141842        -0.789550         1.242438
 C         3.626131        -0.468718         0.904819
 C         3.243244         0.421883        -0.297085
 C         3.687597         1.462666        -1.264518
 O         2.435823         2.125693        -1.160900
 C         2.111657         1.354754         0.157571
 O         2.239196        -0.249103        -1.043644
 H        -0.331918        -1.244423         0.190713
 H        -0.660869         0.511654         0.396553
 H        -0.176171        -0.143995        -1.215475
 H         1.841783        -0.562974         2.275463
 H         1.998768        -1.768600         0.965691
 H         4.241961        -0.001719         1.712070
 H         4.030904        -1.384964         0.630146
 H         4.521040         2.050342        -0.819441
 H         4.013684         1.278915        -2.244854
 H         2.114878         2.070947         0.922462
