19
Iteration:   625
 C        -0.002233        -0.175797        -0.131751
 C         1.388145         0.112143         0.109731
 C         2.034580        -0.663935         1.312186
 C         3.584304        -0.387993         0.989856
 C         3.243453         0.481470        -0.191915
 C         3.742096         1.384692        -1.335116
 O         2.325825         2.009760        -1.370010
 C         2.163372         1.467206         0.051824
 O         2.321722        -0.460567        -0.891110
 H        -0.151036        -1.196597        -0.356043
 H        -0.603822        -0.069443         0.737392
 H        -0.457758         0.341537        -0.936087
 H         1.804893        -0.327340         2.311266
 H         1.733949        -1.744630         1.160919
 H         4.189657         0.099360         1.723838
 H         4.042215        -1.361120         0.619379
 H         4.597220         2.153163        -1.063507
 H         3.972511         0.808382        -2.228037
 H         2.208685         2.011863         1.043964
