19
Iteration:  1610charge 0 multiplicity 1
 C        -0.124572        -0.162018        -0.023653
 C         1.378647         0.107651         0.131869
 C         2.005252        -0.715276         1.259754
 C         3.632927        -0.385210         1.029016
 C         3.309143         0.435491        -0.217299
 C         3.779149         1.458144        -1.321535
 O         2.377236         1.972145        -1.382379
 C         2.127097         1.454308        -0.027934
 O         2.335757        -0.444108        -0.917199
 H        -0.335283        -1.186878         0.354523
 H        -0.922562         0.453493         0.493587
 H        -0.276729        -0.164125        -1.122466
 H         1.985792        -0.423364         2.316868
 H         1.679901        -1.783771         1.163833
 H         4.041947         0.127764         1.880636
 H         4.169015        -1.335112         0.845661
 H         4.372507         2.254938        -0.927940
 H         4.032626         1.058757        -2.343001
 H         2.099478         2.343558         0.659137
