19
Iteration:  2641charge 0 multiplicity 1
 C        -0.107323        -0.174887        -0.223106
 C         1.422863         0.018489         0.124384
 C         2.047621        -0.450768         1.451875
 C         3.636878        -0.307043         1.022512
 C         3.312394         0.384480        -0.300914
 C         3.651053         1.400024        -1.458261
 O         2.447282         2.095400        -1.171278
 C         2.163020         1.286081        -0.031412
 O         2.263137        -0.599112        -0.944554
 H        -0.240997        -0.492177        -1.253972
 H        -0.509978        -0.976086         0.437301
 H        -0.839000         0.717657         0.002245
 H         1.845159         0.290524         2.192264
 H         1.759858        -1.524609         1.692107
 H         3.881842         0.466997         1.775945
 H         4.181723        -1.200457         1.114552
 H         4.483041         2.062057        -1.094721
 H         3.999890         1.003503        -2.432869
 H         2.101226         1.939305         0.892444
