19
Iteration:  1653charge 0 multiplicity 1
 C        -0.120271        -0.213402        -0.136714
 C         1.343679        -0.000262         0.146746
 C         2.090519        -0.504070         1.393998
 C         3.595454        -0.305221         1.001481
 C         3.282181         0.333313        -0.390567
 C         3.761813         1.426025        -1.371606
 O         2.450649         2.141473        -1.146488
 C         2.123258         1.338906        -0.024124
 O         2.301234        -0.597161        -1.012241
 H        -0.472971        -1.268678        -0.210975
 H        -0.808494         0.148601         0.726355
 H        -0.300100         0.429231        -1.034769
 H         1.643237         0.190128         2.071870
 H         1.767791        -1.456285         1.841571
 H         3.943147         0.497676         1.686530
 H         4.431941        -1.089382         1.020330
 H         4.554324         2.022316        -0.988760
 H         3.806323         1.031202        -2.413128
 H         2.033658         1.985827         0.900405
