19
Iteration:  1417charge 0 multiplicity 1
 C        -0.113517        -0.169226        -0.234479
 C         1.379318        -0.017831         0.083035
 C         2.125271        -0.528161         1.399379
 C         3.649814        -0.325944         1.051061
 C         3.310761         0.327029        -0.301279
 C         3.684935         1.352745        -1.349790
 O         2.401575         2.186245        -1.173462
 C         2.131495         1.358413         0.047809
 O         2.220161        -0.523852        -0.998005
 H        -0.462080        -1.173935         0.045306
 H        -0.655363         0.662971         0.226022
 H        -0.065203        -0.074306        -1.329162
 H         1.861532        -0.182311         2.356002
 H         2.031729        -1.600036         1.415435
 H         4.300585         0.272582         1.800078
 H         4.119005        -1.299402         0.889488
 H         4.443938         2.093011        -1.139098
 H         3.826409         0.937169        -2.342552
 H         2.174518         1.913193         0.968255
