19
Iteration:   389charge 0 multiplicity 1
 C        -0.141446        -0.239088        -0.045365
 C         1.328536         0.138942         0.146484
 C         2.030292        -0.623899         1.267759
 C         3.550243        -0.426991         1.006336
 C         3.298123         0.451325        -0.236695
 C         3.806309         1.461788        -1.314790
 O         2.416454         1.989976        -1.332082
 C         2.125101         1.464057        -0.036378
 O         2.382371        -0.484217        -0.931765
 H        -0.142013        -1.079422        -0.754699
 H        -0.536995        -0.645132         0.925591
 H        -0.765351         0.579971        -0.381796
 H         1.715241        -0.276709         2.261205
 H         1.718645        -1.650273         1.156828
 H         4.103242         0.069398         1.756782
 H         4.133664        -1.314114         0.910223
 H         4.443957         2.308794        -0.953725
 H         4.073029         1.039371        -2.303513
 H         2.057367         2.273258         0.647573
