19
Iteration:  4728charge 0 multiplicity 1
 C        -0.150391        -0.188918        -0.162997
 C         1.364643         0.186280         0.102495
 C         1.920303         0.237276         1.591339
 C         3.429490         0.256130         1.340473
 C         3.287840         0.355271        -0.157098
 C         3.850197         0.752458        -1.512783
 O         2.584751         1.512475        -1.795213
 C         2.119974         1.404459        -0.371869
 O         2.366739        -0.738210        -0.504833
 H        -0.581701        -0.692754         0.666907
 H        -0.660314         0.782761        -0.536641
 H        -0.115720        -0.918835        -0.981825
 H         1.475343         1.077343         2.231996
 H         1.590467        -0.735740         1.936364
 H         3.906536         1.203913         1.557171
 H         4.187483        -0.491878         1.736082
 H         4.762684         1.237575        -1.491688
 H         3.969877        -0.151061        -2.083566
 H         1.929353         2.348402         0.301302
