19
Iteration:  4002
 C        -0.056988        -0.166863        -0.089124
 C         1.356494         0.250311         0.037666
 C         1.870455         0.139810         1.633891
 C         3.385701         0.322381         1.412417
 C         3.262708         0.467032        -0.081774
 C         3.924983         0.768188        -1.563360
 O         2.600389         1.290380        -1.860333
 C         2.118353         1.473953        -0.503397
 O         2.360374        -0.726235        -0.479530
 H        -0.190944        -1.159475        -0.453082
 H        -0.760023        -0.098427         0.811390
 H        -0.503763         0.585129        -0.757698
 H         1.394172         0.901881         2.212405
 H         1.460308        -0.853230         1.919632
 H         3.659430         1.286421         1.976155
 H         4.040322        -0.518112         1.793638
 H         4.685722         1.594813        -1.409790
 H         4.188394        -0.228416        -2.116695
 H         1.870731         2.483330        -0.207533
