19
Iteration:  3288charge 0 multiplicity 1
 C        -0.116645        -0.060873        -0.086561
 C         1.352882         0.066651         0.140910
 C         1.987358        -0.188307         1.540489
 C         3.520743         0.038642         1.263081
 C         3.269189         0.309307        -0.263904
 C         3.808868         1.198820        -1.350073
 O         2.533401         1.748693        -1.708791
 C         2.077949         1.339960        -0.315288
 O         2.364419        -0.773889        -0.712013
 H        -0.733789         0.630479         0.614859
 H        -0.511326         0.257593        -1.108873
 H        -0.539577        -1.064451         0.082366
 H         1.677394         0.685984         2.208631
 H         1.706357        -1.132041         1.773374
 H         4.091753         0.872847         1.770854
 H         4.074081        -0.956475         1.474903
 H         4.529545         1.956873        -0.914552
 H         4.210883         0.627145        -2.127150
 H         1.877715         2.158529         0.297713
