19
Iteration:  3346
 C        -0.082319        -0.359549        -0.208586
 C         1.367506         0.186757         0.093442
 C         1.948655        -0.071064         1.665362
 C         3.499923        -0.080664         1.326699
 C         3.243244         0.424048        -0.231552
 C         3.851133         0.934944        -1.562598
 O         2.549452         1.799077        -1.681622
 C         2.158372         1.521879        -0.224944
 O         2.290495        -0.588899        -0.638125
 H        -0.281004        -1.075248         0.558273
 H        -0.787274         0.462495        -0.121335
 H        -0.116252        -0.857457        -1.216025
 H         1.747732         0.695212         2.425420
 H         1.321994        -1.001198         1.950179
 H         4.063292         0.603802         1.981256
 H         3.926239        -1.060760         1.432090
 H         4.667214         1.585020        -1.638121
 H         3.768595         0.281259        -2.438848
 H         1.964337         2.428978         0.379138
