19
Iteration:  1018charge 0 multiplicity 1
 C        -0.118776        -0.176140        -0.066095
 C         1.392159        -0.071679         0.025167
 C         2.060357        -0.593845         1.351831
 C         3.607044        -0.296594         0.936578
 C         3.224302         0.390466        -0.293643
 C         3.757394         1.413218        -1.277734
 O         2.469409         2.071698        -1.224483
 C         2.133862         1.396157         0.065671
 O         2.282731        -0.486064        -1.041111
 H        -0.613362        -1.100854         0.343177
 H        -0.640536         0.639750         0.424653
 H        -0.426485        -0.159761        -1.141453
 H         1.718669        -0.146412         2.297916
 H         1.839525        -1.591243         1.446392
 H         4.074522         0.488778         1.601746
 H         4.274282        -1.160951         0.849604
 H         4.517147         2.096336        -0.795283
 H         4.161843         0.973386        -2.172965
 H         1.930984         1.959029         0.981506
