19
Iteration:  3692charge 0 multiplicity 1
 C        -0.165231        -0.085030        -0.095796
 C         1.337120         0.188212         0.122414
 C         1.893849         0.055724         1.589390
 C         3.447331         0.184651         1.374111
 C         3.299978         0.331099        -0.168551
 C         3.851054         1.063367        -1.465901
 O         2.585073         1.428542        -1.854169
 C         2.134508         1.332010        -0.425207
 O         2.364342        -0.742507        -0.575774
 H        -0.116664        -0.901636        -0.883039
 H        -0.600169        -0.444601         0.820491
 H        -0.706226         0.841249        -0.469972
 H         1.454459         0.820899         2.282887
 H         1.642584        -0.869557         1.913124
 H         3.884443         1.131572         1.798611
 H         3.990285        -0.755376         1.656061
 H         4.657904         1.829242        -1.142731
 H         4.289391         0.314106        -2.035249
 H         2.280350         2.295046         0.255489
