19
Iteration:  3278
 C        -0.101573        -0.047480        -0.081286
 C         1.394022         0.068209         0.097975
 C         1.960252        -0.170955         1.531932
 C         3.507563         0.029050         1.241325
 C         3.271040         0.335812        -0.254954
 C         3.838799         1.158702        -1.388770
 O         2.485833         1.727624        -1.672183
 C         2.048317         1.378742        -0.255796
 O         2.372787        -0.790216        -0.719895
 H        -0.503548         0.904998         0.394274
 H        -0.162840        -0.010714        -1.209028
 H        -0.559459        -0.947588         0.340161
 H         1.385411         0.370749         2.368215
 H         1.717243        -1.150647         1.824823
 H         3.948939         0.931027         1.757080
 H         4.152750        -0.893317         1.429508
 H         4.539204         1.864946        -0.937407
 H         4.291819         0.741750        -2.231185
 H         1.980364         2.248366         0.335241
