19
Iteration:  1752charge 0 multiplicity 1
 C        -0.096532        -0.150805        -0.076258
 C         1.358349        -0.085770         0.068858
 C         2.058554        -0.619331         1.385797
 C         3.605419        -0.251653         1.014922
 C         3.257886         0.351754        -0.355652
 C         3.734371         1.484417        -1.237086
 O         2.416871         2.089349        -1.323551
 C         2.169594         1.404817        -0.054415
 O         2.278355        -0.584948        -0.949913
 H        -0.489121        -1.183219         0.119834
 H        -0.464331         0.557929         0.727783
 H        -0.546440         0.230725        -1.061897
 H         1.764552        -0.171263         2.291192
 H         1.873885        -1.702439         1.464749
 H         4.204495         0.514970         1.566437
 H         4.168798        -1.278795         0.792615
 H         4.347866         2.163310        -0.605033
 H         4.189137         1.320836        -2.249013
 H         2.318218         1.979307         0.861239
