19
Iteration:   893charge 0 multiplicity 1
 C        -0.097377        -0.164750        -0.035078
 C         1.367332         0.029788         0.013358
 C         2.022365        -0.547828         1.287069
 C         3.620460        -0.352781         0.987943
 C         3.283236         0.402699        -0.322538
 C         3.735575         1.535957        -1.314804
 O         2.457132         2.178580        -1.241461
 C         2.096655         1.260976        -0.045138
 O         2.290835        -0.679895        -0.897944
 H        -0.377231        -1.176867        -0.171757
 H        -0.576290         0.253826         0.851764
 H        -0.561960         0.387510        -0.847015
 H         1.749405         0.042516         2.135924
 H         1.829853        -1.664076         1.442406
 H         4.140639         0.248634         1.713586
 H         4.163726        -1.313767         0.934530
 H         4.497350         1.984059        -0.685211
 H         4.120397         1.402197        -2.349915
 H         2.251734         1.993047         0.845143
