19
Iteration:  2802charge 0 multiplicity 1
 C        -0.035705        -0.245021        -0.242127
 C         1.347755         0.144019         0.185495
 C         2.007703        -0.445842         1.481243
 C         3.497528        -0.415891         1.074620
 C         3.361764         0.387238        -0.234825
 C         3.647204         1.329240        -1.531408
 O         2.406697         1.991170        -1.353043
 C         2.216797         1.454941         0.000443
 O         2.358117        -0.491786        -0.816817
 H        -0.836017        -0.112207         0.453536
 H        -0.191931         0.402354        -1.134309
 H        -0.069283        -1.300150        -0.494950
 H         1.770869         0.172571         2.368661
 H         1.641198        -1.512216         1.565934
 H         4.126363         0.293780         1.761458
 H         4.008096        -1.358812         0.977054
 H         4.515210         2.090006        -1.325107
 H         3.849566         0.777966        -2.504271
 H         1.979772         2.160974         0.746957
