19
Iteration:  1365
 C        -0.078920        -0.224304        -0.130393
 C         1.403657         0.040438         0.084606
 C         2.043845        -0.590208         1.340996
 C         3.589298        -0.464991         0.994607
 C         3.295604         0.421205        -0.232193
 C         3.706538         1.436679        -1.300833
 O         2.451666         2.057009        -1.302092
 C         2.138927         1.386268         0.086938
 O         2.252249        -0.398237        -1.001211
 H        -0.029344        -1.350838        -0.297354
 H        -0.710464         0.053926         0.749237
 H        -0.474879         0.212090        -1.094524
 H         1.737142         0.068149         2.210414
 H         1.690145        -1.554198         1.614778
 H         4.002560         0.163540         1.840463
 H         4.339298        -1.194980         0.772431
 H         4.583995         2.070095        -1.249183
 H         3.775098         1.001414        -2.262151
 H         2.180817         2.041130         0.934854
