19
Iteration:   424
 C        -0.115784        -0.219895        -0.179865
 C         1.325090         0.025696         0.203546
 C         2.120899        -0.605114         1.378089
 C         3.593441        -0.305219         1.007887
 C         3.252642         0.399307        -0.249735
 C         3.775310         1.363516        -1.359988
 O         2.446352         2.050733        -1.224644
 C         2.097847         1.439337        -0.002472
 O         2.278867        -0.456643        -1.017923
 H         0.045968        -0.843555        -1.007882
 H        -0.663805        -0.745436         0.576017
 H        -0.704483         0.635968        -0.503046
 H         1.928435        -0.166058         2.372725
 H         1.928566        -1.647186         1.476762
 H         4.004350         0.464278         1.707351
 H         3.943354        -1.263677         0.944647
 H         4.676569         2.056712        -1.271423
 H         3.934468         0.749289        -2.314198
 H         2.252688         2.193991         0.825257
