19
Iteration:  1071
 C        -0.082470        -0.201112        -0.130816
 C         1.364683         0.013574         0.074940
 C         2.070639        -0.640727         1.302872
 C         3.593344        -0.356780         0.980298
 C         3.252074         0.453415        -0.244005
 C         3.783547         1.394538        -1.332656
 O         2.406494         2.000866        -1.230689
 C         2.168343         1.420836         0.007435
 O         2.274905        -0.366297        -0.958951
 H        -0.311092        -1.270408         0.037977
 H        -0.663043         0.254610         0.628558
 H        -0.462105         0.080117        -1.112531
 H         1.927644        -0.163360         2.304896
 H         1.841887        -1.697129         1.440540
 H         4.019865         0.163394         1.846313
 H         3.969153        -1.314031         0.769495
 H         4.575358         2.033078        -1.057572
 H         3.960629         0.797505        -2.179710
 H         1.983249         2.073457         0.949131
