19
Iteration:   241charge 0 multiplicity 1
 C        -0.065619        -0.187339        -0.088597
 C         1.400427        -0.078344         0.042769
 C         2.095506        -0.618405         1.388018
 C         3.625513        -0.334406         0.910048
 C         3.274710         0.381641        -0.351579
 C         3.802732         1.521915        -1.158168
 O         2.380027         2.118210        -1.183726
 C         2.130602         1.329417        -0.042997
 O         2.183710        -0.527280        -1.061716
 H        -0.391316         0.806304         0.231788
 H        -0.489596        -0.197842        -1.125666
 H        -0.705418        -0.908545         0.501684
 H         1.683285        -0.081168         2.286401
 H         1.979318        -1.653363         1.344858
 H         4.230795         0.319446         1.605270
 H         4.134741        -1.194853         0.690321
 H         4.364706         2.051657        -0.379131
 H         4.460423         1.430622        -2.003846
 H         2.087327         1.903022         0.867567
