19
Iteration:   402charge 0 multiplicity 1
 C        -0.049449        -0.260510        -0.109131
 C         1.385265         0.101790         0.066425
 C         1.996789        -0.698625         1.310815
 C         3.601342        -0.386659         1.000761
 C         3.325382         0.433030        -0.259849
 C         3.723139         1.407882        -1.339193
 O         2.448070         2.068153        -1.408671
 C         2.126147         1.448119        -0.004826
 O         2.258404        -0.397996        -0.768952
 H        -0.211380        -0.953006        -0.874496
 H        -0.410576        -0.691864         0.813103
 H        -0.769801         0.490732        -0.340837
 H         1.768680        -0.448434         2.364893
 H         1.766829        -1.706687         1.185493
 H         3.988061         0.153318         1.912802
 H         4.029364        -1.279443         0.695350
 H         4.576002         2.034348        -0.869363
 H         4.115592         1.051781        -2.360774
 H         2.085827         2.202925         0.827566
