19
Iteration:  4516
 C        -0.119917        -0.117866        -0.142428
 C         1.364568         0.185503         0.103924
 C         1.867239         0.201547         1.619044
 C         3.467900         0.244268         1.413883
 C         3.340830         0.430646        -0.130390
 C         3.873421         0.866006        -1.531271
 O         2.551631         1.368594        -1.856203
 C         2.148817         1.390577        -0.445371
 O         2.348123        -0.767168        -0.501535
 H        -0.340129        -1.166344         0.216159
 H        -0.842248         0.524654         0.275439
 H        -0.413101        -0.114118        -1.239184
 H         1.377554         1.001996         2.074642
 H         1.568226        -0.699988         2.235014
 H         3.884722         1.124847         2.013237
 H         4.088493        -0.597432         1.731827
 H         4.642141         1.581275        -1.588045
 H         4.082301        -0.016632        -2.127048
 H         1.797782         2.408909        -0.029273
