19
Iteration:  4050charge 0 multiplicity 1
 C        -0.023664        -0.226740        -0.287717
 C         1.316715         0.136125         0.129027
 C         1.956826         0.396981         1.610882
 C         3.418069         0.307579         1.368980
 C         3.301890         0.248259        -0.208692
 C         3.915731         0.786080        -1.562217
 O         2.531992         1.588931        -1.813831
 C         2.130554         1.308222        -0.449460
 O         2.283931        -0.821206        -0.310644
 H        -0.137879        -1.337542        -0.252107
 H        -0.726047         0.067341         0.415480
 H        -0.355254         0.211982        -1.212594
 H         1.596444         1.326556         2.052655
 H         1.549429        -0.447970         2.161710
 H         4.004143         1.135099         1.716947
 H         3.722423        -0.561895         1.923113
 H         4.664530         1.563864        -1.283585
 H         4.060690         0.077938        -2.422503
 H         1.924926         2.281691         0.175987
