19
Iteration:  3609
 C        -0.108529        -0.212993        -0.174561
 C         1.349018         0.103334         0.116541
 C         1.901518         0.189573         1.601065
 C         3.484864         0.179360         1.253478
 C         3.307059         0.301854        -0.185761
 C         3.836488         0.896318        -1.453978
 O         2.548357         1.691275        -1.646554
 C         2.136502         1.335558        -0.403245
 O         2.320991        -0.777916        -0.604306
 H        -0.718380        -0.423578         0.720073
 H        -0.476325         0.789100        -0.528536
 H        -0.191300        -1.024252        -0.981366
 H         1.432845         1.008588         2.179528
 H         1.637819        -0.785072         2.149524
 H         4.056507         1.078627         1.577490
 H         4.129531        -0.609849         1.693404
 H         4.609576         1.678841        -1.316892
 H         4.149765         0.098468        -2.302193
 H         2.126592         2.142753         0.270199
