19
Iteration:  1771
 C        -0.156003        -0.150263        -0.104681
 C         1.320741        -0.037208         0.079277
 C         2.187351        -0.565689         1.443510
 C         3.609323        -0.232565         0.994399
 C         3.253222         0.398873        -0.392241
 C         3.827771         1.476492        -1.286028
 O         2.467957         2.094838        -1.202957
 C         2.085633         1.227526        -0.023013
 O         2.212148        -0.574889        -1.042881
 H        -0.410536        -1.127338         0.291326
 H        -0.806116         0.590027         0.431636
 H        -0.175516        -0.039967        -1.178473
 H         1.818793        -0.039859         2.401039
 H         1.773914        -1.636686         1.541226
 H         3.975934         0.639875         1.640876
 H         4.421922        -1.099630         1.083861
 H         4.669630         2.049504        -0.753596
 H         4.072184         1.095557        -2.326948
 H         1.785488         1.946898         0.754789
