19
Iteration:  3417charge 0 multiplicity 1
 C        -0.161660        -0.036246        -0.118555
 C         1.334442         0.128081         0.154762
 C         1.907578        -0.175952         1.544315
 C         3.487104         0.075630         1.247533
 C         3.256949         0.422111        -0.247729
 C         3.984869         1.128089        -1.451237
 O         2.467125         1.530417        -1.751859
 C         2.118013         1.322526        -0.268032
 O         2.363819        -0.700678        -0.616427
 H        -0.254310        -0.929310        -0.782441
 H        -0.577662        -0.229032         0.872755
 H        -0.460883         0.837470        -0.571773
 H         1.548727         0.640280         2.276966
 H         1.825785        -1.204977         1.994306
 H         3.852734         0.961889         1.782282
 H         4.234393        -0.704601         1.567320
 H         4.433841         2.119995        -1.106904
 H         4.483673         0.612243        -2.209946
 H         2.037121         2.328162         0.221406
