19
Iteration:  4907charge 0 multiplicity 1
 C        -0.072304        -0.209901        -0.155560
 C         1.315359         0.183959         0.079921
 C         1.904239         0.365259         1.591998
 C         3.455921         0.201493         1.311275
 C         3.299712         0.273132        -0.181051
 C         3.905878         0.852758        -1.528733
 O         2.513707         1.516330        -1.799019
 C         2.170053         1.336780        -0.385507
 O         2.351242        -0.775749        -0.450290
 H        -0.303727        -1.240560         0.304465
 H        -0.713604         0.496461         0.355668
 H        -0.272468        -0.215349        -1.232036
 H         1.315872         1.213662         2.051208
 H         1.356081        -0.500857         2.140263
 H         4.041070         1.071781         1.733906
 H         3.795380        -0.694854         1.784250
 H         4.642873         1.600877        -1.366666
 H         4.070280         0.127497        -2.309538
 H         2.037484         2.329506         0.227650
