19
Iteration:  1875charge 0 multiplicity 1
 C        -0.137141        -0.154064        -0.111227
 C         1.310056         0.010124         0.052645
 C         2.060654        -0.605867         1.451702
 C         3.645668        -0.261696         1.030789
 C         3.371499         0.287918        -0.338104
 C         3.754617         1.457150        -1.308760
 O         2.438617         2.131842        -1.320058
 C         2.094913         1.347186        -0.033758
 O         2.256502        -0.615801        -0.941037
 H        -0.401113        -0.978392        -0.857564
 H        -0.560562        -0.103061         0.899417
 H        -0.466366         0.777521        -0.665429
 H         1.605709        -0.057064         2.216875
 H         1.916029        -1.625856         1.620513
 H         4.107085         0.530587         1.662134
 H         4.208100        -1.199872         1.101537
 H         4.451607         2.138030        -0.754724
 H         4.231701         1.322739        -2.269408
 H         2.126088         2.069705         0.792509
