19
Iteration:   892
 C        -0.104649        -0.164731        -0.035557
 C         1.360530         0.020647         0.019194
 C         2.025698        -0.540768         1.288081
 C         3.621980        -0.356314         0.986197
 C         3.291686         0.407250        -0.312860
 C         3.744578         1.531066        -1.314454
 O         2.452136         2.178448        -1.237670
 C         2.099180         1.259875        -0.049888
 O         2.286338        -0.677837        -0.906494
 H        -0.378639        -1.183435        -0.156043
 H        -0.584606         0.255949         0.836770
 H        -0.537238         0.373400        -0.879188
 H         1.755256         0.069710         2.162397
 H         1.836406        -1.642247         1.416978
 H         4.145591         0.264578         1.718303
 H         4.167873        -1.302148         0.916239
 H         4.471209         1.987675        -0.694180
 H         4.112869         1.398987        -2.343012
 H         2.271408         1.987885         0.848750
