19
Iteration:  2910
 C        -0.183940        -0.255902        -0.178417
 C         1.383424         0.073676         0.126498
 C         2.041347        -0.379698         1.465226
 C         3.541925        -0.271825         1.091805
 C         3.332025         0.486146        -0.174718
 C         3.788253         1.251089        -1.392247
 O         2.498292         1.900570        -1.438885
 C         2.131076         1.442592        -0.066009
 O         2.278545        -0.505522        -0.865112
 H        -0.180817        -1.205551        -0.783125
 H        -0.577523        -0.658173         0.814793
 H        -0.581031         0.566429        -0.779322
 H         1.641708         0.294560         2.204183
 H         1.692022        -1.383935         1.814512
 H         4.153143         0.374821         1.718693
 H         4.040367        -1.142269         0.818000
 H         4.616955         1.912847        -1.292795
 H         3.764923         0.686441        -2.347018
 H         2.139739         2.188052         0.723545
