19
Iteration:  1391
 C        -0.064100        -0.234931        -0.272728
 C         1.364807         0.072883         0.155853
 C         2.048477        -0.650728         1.344077
 C         3.572841        -0.377247         0.940818
 C         3.256300         0.398866        -0.280463
 C         3.726905         1.317428        -1.437076
 O         2.442271         2.111507        -1.161550
 C         2.124384         1.522793         0.051191
 O         2.289294        -0.431719        -0.810022
 H        -0.057546        -1.291955        -0.015479
 H        -0.775340         0.355126         0.298149
 H        -0.175232        -0.214231        -1.343297
 H         1.832226        -0.363783         2.494015
 H         1.909655        -1.805813         1.433949
 H         4.172795        -0.024066         1.720239
 H         4.162631        -1.247595         0.516470
 H         4.561768         2.116147        -1.469835
 H         3.753219         0.917134        -2.572362
 H         2.097511         2.211732         0.967397
