19
Iteration:   779charge 0 multiplicity 1
 C        -0.128601        -0.141570        -0.128121
 C         1.323031        -0.024443         0.053946
 C         2.099109        -0.580552         1.367845
 C         3.624073        -0.211593         0.901067
 C         3.313608         0.369566        -0.365184
 C         3.781557         1.421887        -1.242648
 O         2.382443         2.036391        -1.158274
 C         2.138867         1.268174        -0.003502
 O         2.268062        -0.530566        -0.993893
 H        -0.689559        -0.953795         0.345877
 H        -0.416790         0.828460         0.285266
 H        -0.460192        -0.006016        -1.151101
 H         1.750835        -0.138387         2.361720
 H         1.877331        -1.633270         1.504398
 H         4.118025         0.526563         1.577781
 H         4.387590        -1.004653         0.963274
 H         4.463303         2.001612        -0.676694
 H         4.182258         1.210636        -2.207314
 H         2.101449         1.958452         0.918792
