19
Iteration:  1987charge 0 multiplicity 1
 C        -0.116721        -0.144814        -0.213391
 C         1.379032        -0.038964         0.083919
 C         2.063450        -0.460496         1.474819
 C         3.613716        -0.294286         0.977972
 C         3.373822         0.326658        -0.365118
 C         3.708466         1.372238        -1.346975
 O         2.427406         2.071353        -1.168759
 C         2.055322         1.296962         0.033043
 O         2.336807        -0.546994        -0.971037
 H        -0.618151        -1.069411         0.254397
 H        -0.614633         0.840951         0.170234
 H        -0.383806         0.019069        -1.279940
 H         1.770545         0.270581         2.194705
 H         1.968588        -1.533810         1.771633
 H         4.146054         0.455598         1.558723
 H         4.010068        -1.257621         0.899970
 H         4.475134         2.060668        -0.991900
 H         3.698039         1.181959        -2.437214
 H         1.945899         2.053777         0.859726
