19
Iteration:  4814charge 0 multiplicity 1
 C        -0.162455        -0.021282        -0.077909
 C         1.376865         0.155159         0.112236
 C         1.857666         0.210549         1.599611
 C         3.366978         0.286832         1.354670
 C         3.288604         0.266639        -0.208910
 C         3.890305         0.953619        -1.509546
 O         2.626633         1.481442        -1.853822
 C         2.131188         1.251789        -0.478297
 O         2.417812        -0.875734        -0.462125
 H        -0.477459        -1.058388         0.070182
 H        -0.767943         0.464608         0.785158
 H        -0.672175         0.284832        -1.010782
 H         1.410266         1.043316         2.047441
 H         1.548241        -0.563677         2.200948
 H         3.857345         1.187664         1.695277
 H         4.105397        -0.530487         1.601614
 H         4.542720         1.735651        -1.091168
 H         4.333550         0.356128        -2.329219
 H         1.977293         2.219865         0.068363
