19
Iteration:  3542
 C        -0.109060        -0.129051        -0.123889
 C         1.375373         0.172302         0.149129
 C         1.901755        -0.068161         1.570213
 C         3.463814         0.060543         1.329970
 C         3.277496         0.451442        -0.119128
 C         3.829165         0.991959        -1.490479
 O         2.531392         1.516934        -1.744576
 C         2.164665         1.412944        -0.380303
 O         2.341628        -0.646546        -0.662291
 H        -0.658125         0.806266        -0.145577
 H        -0.113157        -0.729091        -1.035387
 H        -0.360482        -0.839638         0.745370
 H         1.670349         0.686846         2.332882
 H         1.501938        -0.992653         1.913765
 H         3.689021         1.015608         1.909999
 H         4.078247        -0.820432         1.655825
 H         4.584581         1.812045        -1.492790
 H         4.280293         0.123954        -2.121838
 H         2.069920         2.393465         0.006924
