19
Iteration:  1989
 C        -0.122247        -0.147483        -0.197698
 C         1.388596        -0.032236         0.077583
 C         2.040843        -0.475487         1.473185
 C         3.630039        -0.289525         0.979666
 C         3.363644         0.343703        -0.367594
 C         3.709174         1.377038        -1.351525
 O         2.433230         2.067053        -1.168206
 C         2.040319         1.288162         0.018074
 O         2.336324        -0.541041        -0.970243
 H        -0.631374        -1.047479         0.217089
 H        -0.502219         0.849516         0.190008
 H        -0.378220         0.022412        -1.276147
 H         1.754248         0.276860         2.266154
 H         1.973415        -1.558439         1.804838
 H         4.118370         0.407870         1.577505
 H         4.077885        -1.257426         0.937798
 H         4.486696         2.028366        -1.030117
 H         3.763308         1.155191        -2.435006
 H         1.969231         2.036726         0.876708
