19
Iteration:  4412
 C        -0.178797        -0.129060        -0.117205
 C         1.347623         0.156482         0.102130
 C         1.879381         0.099409         1.637924
 C         3.505085         0.199522         1.441156
 C         3.314529         0.480277        -0.116041
 C         3.984630         0.928419        -1.536183
 O         2.581580         1.312361        -1.888855
 C         2.114332         1.439595        -0.534911
 O         2.286082        -0.707608        -0.464069
 H        -0.752273        -0.367783         0.793207
 H        -0.824656         0.812934        -0.424632
 H        -0.301912        -0.974588        -0.760349
 H         1.526262         0.981300         2.270166
 H         1.700343        -0.881313         2.045082
 H         4.064864         0.986672         1.938316
 H         3.854446        -0.877093         1.503634
 H         4.474954         1.811385        -1.388866
 H         4.549562         0.355512        -2.232926
 H         1.778472         2.457578        -0.131943
