19
Iteration:  4193
 C        -0.134706        -0.259136        -0.253158
 C         1.359099         0.234919         0.151732
 C         1.880723         0.230266         1.722711
 C         3.420589         0.191895         1.377654
 C         3.292909         0.457387        -0.176859
 C         3.886698         0.739222        -1.562626
 O         2.566606         1.494013        -1.887816
 C         2.183351         1.452236        -0.445084
 O         2.328088        -0.713625        -0.366054
 H        -0.128711        -1.323534         0.026679
 H        -1.007854         0.182612         0.075418
 H        -0.201228        -0.284245        -1.361318
 H         1.663553         1.067442         2.304934
 H         1.592350        -0.638877         2.188198
 H         4.015368         0.886627         1.873782
 H         3.867062        -0.762533         1.717787
 H         4.798653         1.476002        -1.661293
 H         3.886842        -0.088507        -2.261575
 H         2.085832         2.525228        -0.118464
