19
Iteration:  1023
 C        -0.121506        -0.198831        -0.067340
 C         1.429850        -0.038829         0.032683
 C         2.068991        -0.615929         1.342943
 C         3.586114        -0.312246         0.981924
 C         3.220084         0.386827        -0.285003
 C         3.797393         1.419434        -1.280330
 O         2.470164         2.068621        -1.214801
 C         2.103416         1.402644         0.005981
 O         2.246981        -0.481115        -1.013220
 H        -0.589378        -1.072333         0.385640
 H        -0.591453         0.685120         0.442485
 H        -0.377113        -0.179326        -1.124780
 H         1.764734        -0.206595         2.321217
 H         1.818102        -1.766717         1.344434
 H         3.992568         0.467147         1.603674
 H         4.326289        -1.095529         0.663911
 H         4.482318         2.178459        -0.840377
 H         4.158547         1.080219        -2.304600
 H         2.073799         2.098494         0.877360
