19
Iteration:  2338charge 0 multiplicity 1
 C        -0.088786        -0.135340        -0.171492
 C         1.357125         0.003029         0.163010
 C         2.035247        -0.543058         1.375688
 C         3.681431        -0.327167         1.040591
 C         3.289145         0.357787        -0.310589
 C         3.766718         1.439660        -1.328591
 O         2.379746         1.969921        -1.316478
 C         2.092650         1.366386        -0.013023
 O         2.283355        -0.488252        -0.949641
 H        -0.106345        -0.607094        -1.132328
 H        -0.505949        -0.571996         0.718680
 H        -0.600216         0.846803        -0.184147
 H         1.796253         0.120224         2.265659
 H         1.831063        -1.596174         1.638793
 H         4.079722         0.404196         1.801060
 H         3.974823        -1.427822         1.095274
 H         4.512939         2.188557        -1.057940
 H         4.130882         1.077608        -2.305180
 H         2.216974         2.025817         0.839094
