19
Iteration:  2025charge 0 multiplicity 1
 C        -0.109390        -0.176439        -0.062963
 C         1.372847         0.127057         0.083799
 C         2.014347        -0.648361         1.322825
 C         3.570018        -0.284651         1.035425
 C         3.317568         0.406811        -0.290778
 C         3.721333         1.405824        -1.385999
 O         2.436322         1.983655        -1.339890
 C         2.139443         1.432070        -0.030634
 O         2.330705        -0.479221        -0.882928
 H        -0.365931        -1.192547         0.025265
 H        -0.618536         0.183087         0.817437
 H        -0.431371         0.228593        -1.028920
 H         1.729251        -0.651276         2.466554
 H         1.949028        -1.727674         1.019105
 H         3.952739         0.325434         1.888012
 H         4.143847        -1.281693         1.150362
 H         4.520868         1.997280        -0.890910
 H         4.102986         0.854198        -2.235574
 H         1.976973         2.159670         0.780281
