19
Iteration:  3311
 C        -0.164110        -0.239839        -0.078614
 C         1.360053         0.111303         0.085856
 C         1.942657        -0.077830         1.578622
 C         3.506573        -0.021472         1.207303
 C         3.287058         0.421676        -0.276026
 C         3.949376         1.142449        -1.441602
 O         2.528313         1.658425        -1.651634
 C         2.105618         1.449761        -0.218091
 O         2.290846        -0.691245        -0.697371
 H        -0.760478        -0.199070         0.860543
 H        -0.674800         0.542816        -0.719336
 H        -0.399198        -1.189882        -0.575356
 H         1.557983         0.768901         2.220528
 H         1.592329        -1.029003         1.825040
 H         4.177972         0.723120         1.716768
 H         4.029778        -1.018525         1.246747
 H         4.722968         1.756338        -0.994227
 H         4.300478         0.536930        -2.223248
 H         2.049354         2.290591         0.423458
