19
Iteration:  1152
 C        -0.127026        -0.230817        -0.158432
 C         1.392955         0.052547         0.120036
 C         2.109315        -0.671082         1.348725
 C         3.555446        -0.320899         0.974734
 C         3.290381         0.479395        -0.262209
 C         3.775334         1.315191        -1.334458
 O         2.378017         2.064341        -1.274851
 C         2.135162         1.388890         0.064006
 O         2.292402        -0.363135        -0.988236
 H        -0.307702        -1.292374        -0.494814
 H        -0.659026         0.043026         0.825381
 H        -0.480176         0.499114        -0.923301
 H         1.919817        -0.172917         2.280163
 H         1.940918        -1.756186         1.452032
 H         3.932882         0.259904         1.858910
 H         4.138948        -1.323873         1.126011
 H         4.745869         1.720219        -1.099322
 H         3.900303         0.729363        -2.297907
 H         2.105554         2.033484         0.941683
