19
Iteration:   243
 C        -0.080762        -0.201209        -0.081218
 C         1.396729        -0.059578         0.040897
 C         2.096378        -0.626993         1.401402
 C         3.622272        -0.339291         0.925775
 C         3.286932         0.388308        -0.352167
 C         3.802707         1.530801        -1.162988
 O         2.379331         2.129212        -1.187242
 C         2.124135         1.336540        -0.073613
 O         2.186036        -0.536416        -1.051742
 H        -0.383208         0.869544         0.266927
 H        -0.452881        -0.098384        -1.164949
 H        -0.717752        -1.010417         0.482488
 H         1.686957        -0.113376         2.317726
 H         1.952355        -1.700922         1.278685
 H         4.286216         0.310817         1.553992
 H         4.194721        -1.299657         0.712215
 H         4.400270         2.026607        -0.286412
 H         4.430149         1.434938        -2.067662
 H         2.115989         1.858506         0.840463
