19
Iteration:  3280
 C        -0.105599        -0.042914        -0.079585
 C         1.394430         0.074065         0.115493
 C         1.971604        -0.169152         1.530798
 C         3.517886         0.031453         1.260060
 C         3.272948         0.325254        -0.267275
 C         3.825621         1.184477        -1.375536
 O         2.497145         1.732587        -1.688687
 C         2.041451         1.374284        -0.267066
 O         2.374239        -0.800758        -0.725137
 H        -0.549919         0.793477         0.425613
 H        -0.225507         0.041899        -1.170519
 H        -0.588281        -0.960194         0.279659
 H         1.422136         0.420352         2.316139
 H         1.635367        -1.228101         1.824908
 H         4.004596         0.905730         1.724509
 H         4.097359        -0.863312         1.430555
 H         4.554887         1.793460        -0.910886
 H         4.306129         0.665897        -2.194472
 H         1.931443         2.276402         0.376032
