19
Iteration:   610
 C        -0.056645        -0.224789        -0.189435
 C         1.389523         0.118693         0.163808
 C         2.094751        -0.596698         1.346378
 C         3.591311        -0.455442         0.962321
 C         3.334913         0.414501        -0.302543
 C         3.682313         1.445806        -1.397372
 O         2.418881         2.032774        -1.268222
 C         2.084820         1.448158         0.035089
 O         2.280050        -0.480561        -0.804906
 H        -0.095225        -1.382137        -0.144437
 H        -0.832052         0.365925         0.480196
 H        -0.258395         0.235633        -1.233366
 H         1.762001        -0.310262         2.400553
 H         1.859170        -1.700172         1.081595
 H         4.084405        -0.029448         1.910240
 H         4.042660        -1.371176         0.629426
 H         4.419703         2.133354        -1.009017
 H         3.970611         1.162798        -2.451077
 H         1.958015         2.367720         0.588057
