19
Iteration:  1652charge 0 multiplicity 1
 C        -0.116299        -0.209264        -0.128867
 C         1.337927         0.003277         0.147056
 C         2.083794        -0.512000         1.397194
 C         3.593996        -0.304093         0.995820
 C         3.288178         0.336910        -0.387954
 C         3.758527         1.424990        -1.366598
 O         2.455024         2.134591        -1.148942
 C         2.114852         1.342489        -0.028286
 O         2.304948        -0.595829        -1.017481
 H        -0.466722        -1.278980        -0.202824
 H        -0.795745         0.172001         0.736490
 H        -0.283954         0.415960        -1.032423
 H         1.632590         0.183401         2.047710
 H         1.761599        -1.456460         1.855706
 H         3.951366         0.507600         1.715210
 H         4.470622        -1.092961         1.001646
 H         4.576119         2.045372        -0.999259
 H         3.798414         1.036479        -2.409340
 H         2.012749         1.962672         0.899607
