19
Iteration:  2299charge 0 multiplicity 1
 C        -0.129749        -0.098717        -0.105453
 C         1.332725        -0.002850         0.104843
 C         2.081121        -0.541577         1.341891
 C         3.647613        -0.338181         1.063840
 C         3.269971         0.374764        -0.318810
 C         3.780037         1.445271        -1.271822
 O         2.415765         2.085674        -1.335825
 C         2.122485         1.281684        -0.073254
 O         2.318791        -0.603989        -0.912799
 H        -0.561733        -0.900944        -0.818876
 H        -0.679743        -0.291288         0.892809
 H        -0.736473         0.833496        -0.427399
 H         1.618446         0.014217         2.193617
 H         1.768675        -1.571710         1.511428
 H         4.216257         0.399759         1.585022
 H         4.361679        -1.149845         0.907083
 H         4.475851         2.132540        -0.665201
 H         4.194168         1.361978        -2.283434
 H         1.888257         2.119077         0.677297
