19
Iteration:  1579
 C        -0.072987        -0.166414        -0.173479
 C         1.369758        -0.014855         0.135826
 C         2.120892        -0.603671         1.312268
 C         3.650868        -0.339678         1.034659
 C         3.246488         0.418099        -0.289846
 C         3.768407         1.374200        -1.317469
 O         2.339602         2.035655        -1.266359
 C         2.147820         1.431315         0.005185
 O         2.238451        -0.473996        -0.949478
 H        -0.542159        -1.087648         0.041955
 H        -0.745325         0.497024         0.328055
 H        -0.138966         0.078996        -1.235745
 H         1.980239        -0.095783         2.373050
 H         1.802137        -1.657283         1.558814
 H         4.208993         0.230363         1.707751
 H         4.208432        -1.214663         0.931724
 H         4.503266         2.053137        -0.763751
 H         4.078983         0.959964        -2.327841
 H         2.160170         2.168690         0.844114
