19
Iteration:   732
 C        -0.053630        -0.231072        -0.123360
 C         1.411655         0.036639         0.102259
 C         2.046924        -0.564138         1.318456
 C         3.566049        -0.433015         0.929368
 C         3.253031         0.460399        -0.239526
 C         3.756863         1.378984        -1.362296
 O         2.368116         1.982884        -1.259454
 C         2.127075         1.457356         0.061795
 O         2.344835        -0.346721        -0.917129
 H         0.021773        -1.271691        -0.555339
 H        -0.641942        -0.224818         0.877890
 H        -0.523631         0.454663        -0.871131
 H         1.672290         0.000455         2.159535
 H         1.639477        -1.631634         1.516800
 H         4.183294         0.032784         1.683027
 H         4.012123        -1.464932         0.800095
 H         4.583725         1.969660        -1.202625
 H         3.903806         0.682467        -2.176285
 H         1.992594         2.129849         0.846738
