19
Iteration:  1072charge 0 multiplicity 1
 C        -0.081022        -0.190720        -0.128594
 C         1.376056         0.006909         0.069078
 C         2.072655        -0.629283         1.308538
 C         3.588861        -0.362224         0.985273
 C         3.252471         0.447940        -0.244286
 C         3.782453         1.392101        -1.334528
 O         2.406803         2.008856        -1.226728
 C         2.161591         1.407358         0.008828
 O         2.269735        -0.368688        -0.964381
 H        -0.267335        -1.290670         0.011012
 H        -0.689517         0.246218         0.633892
 H        -0.445425         0.102271        -1.128883
 H         1.960995        -0.153765         2.310894
 H         1.860718        -1.645314         1.434516
 H         4.034834         0.176804         1.853615
 H         3.976894        -1.331485         0.761844
 H         4.558231         2.085813        -1.075151
 H         3.970535         0.767852        -2.165927
 H         1.924163         2.049591         0.940231
