19
Iteration:  1952
 C        -0.012542        -0.235746        -0.269731
 C         1.359367         0.012424         0.183977
 C         2.012114        -0.517454         1.473018
 C         3.589901        -0.381737         0.922817
 C         3.339432         0.359170        -0.281811
 C         3.725431         1.412171        -1.395259
 O         2.433200         2.094749        -1.288025
 C         2.152770         1.416966         0.021449
 O         2.222762        -0.469790        -0.828442
 H        -0.298788        -1.328800         0.015089
 H        -0.768039         0.251897         0.370613
 H        -0.133076        -0.179634        -1.343554
 H         1.730076        -0.012949         2.344543
 H         1.592482        -1.483886         1.570833
 H         4.354219         0.044855         1.626885
 H         4.050040        -1.329043         0.671475
 H         4.602261         2.082937        -1.134172
 H         3.868168         1.117518        -2.447295
 H         2.053577         2.160774         0.834183
