19
Iteration:   663charge 0 multiplicity 1
 C        -0.171862        -0.172205        -0.089916
 C         1.377302         0.015911        -0.008339
 C         2.071720        -0.539613         1.345406
 C         3.604877        -0.254903         1.027084
 C         3.269519         0.315614        -0.337281
 C         3.794959         1.442664        -1.323520
 O         2.441220         2.143585        -1.218168
 C         2.104696         1.297565         0.028022
 O         2.285373        -0.616713        -0.951406
 H        -0.335940        -0.943849        -0.877132
 H        -0.533087        -0.405867         0.939635
 H        -0.528107         0.825307        -0.451165
 H         1.602005        -0.068710         2.245661
 H         1.968261        -1.586075         1.502037
 H         4.150031         0.496391         1.664032
 H         4.242725        -1.097403         1.016269
 H         4.548365         2.125765        -1.035465
 H         3.951736         1.162657        -2.389758
 H         2.237262         1.904831         0.892424
