19
Iteration:  3504charge 0 multiplicity 1
 C        -0.074583        -0.233826        -0.202385
 C         1.292588         0.121001         0.116894
 C         1.944172         0.099784         1.577616
 C         3.504789         0.123175         1.218766
 C         3.312106         0.306219        -0.229266
 C         3.795738         0.971382        -1.468200
 O         2.607107         1.804158        -1.623601
 C         2.166346         1.386514        -0.359495
 O         2.278636        -0.874822        -0.533816
 H        -0.556180         0.465160        -0.921647
 H        -0.263115        -1.207922        -0.643291
 H        -0.748588        -0.141264         0.573206
 H         1.778802         1.069796         2.179792
 H         1.576948        -0.833329         2.152510
 H         3.872243         1.047299         1.640765
 H         4.130488        -0.710555         1.525431
 H         4.659095         1.626698        -1.365432
 H         3.826322         0.347523        -2.289926
 H         1.812420         2.260120         0.313512
