19
Iteration:  4124
 C        -0.128616        -0.083846        -0.060458
 C         1.290409         0.140205         0.122555
 C         1.921468         0.055594         1.558985
 C         3.350588         0.326169         1.287696
 C         3.293367         0.382986        -0.188588
 C         3.989397         0.901161        -1.436828
 O         2.599497         1.354893        -1.910656
 C         2.127370         1.385805        -0.495297
 O         2.340235        -0.712472        -0.388895
 H        -0.652441        -0.540703         0.804969
 H        -0.659967         0.873115        -0.287164
 H        -0.419096        -0.730356        -0.885280
 H         1.536457         0.784122         2.257156
 H         1.693371        -1.033367         1.922878
 H         3.756560         1.271882         1.812550
 H         4.092690        -0.391727         1.570419
 H         4.611691         1.840582        -1.238024
 H         4.494910         0.092089        -2.096559
 H         1.935172         2.334305        -0.038234
