19
Iteration:  3369charge 0 multiplicity 1
 C        -0.119978        -0.241595        -0.210783
 C         1.394541         0.102034         0.155987
 C         1.931747        -0.039828         1.560986
 C         3.482265         0.064270         1.222105
 C         3.287589         0.436839        -0.242637
 C         3.784532         0.959052        -1.507955
 O         2.560321         1.791111        -1.587645
 C         2.159470         1.355054        -0.288973
 O         2.332847        -0.681966        -0.578523
 H        -0.311439        -1.285049        -0.057681
 H        -0.819835         0.370490         0.341165
 H        -0.110213        -0.030034        -1.314630
 H         1.634794         0.759049         2.230232
 H         1.404790        -1.080169         1.931797
 H         4.040099         0.774435         1.838204
 H         3.951050        -0.867843         1.406321
 H         4.642127         1.549679        -1.483160
 H         3.664332         0.276532        -2.413044
 H         2.124973         2.251703         0.409943
