19
Iteration:  4404charge 0 multiplicity 1
 C        -0.197941        -0.091172        -0.148192
 C         1.322707         0.194081         0.102517
 C         1.896071         0.164616         1.665911
 C         3.486716         0.192580         1.352693
 C         3.348673         0.400199        -0.165820
 C         3.892361         0.995504        -1.445311
 O         2.588461         1.301011        -1.905257
 C         2.157455         1.399276        -0.513903
 O         2.301679        -0.781762        -0.442141
 H        -0.497795        -0.419454         0.824780
 H        -0.673464         0.834792        -0.603368
 H        -0.260782        -0.914637        -0.862089
 H         1.496242         0.842742         2.401660
 H         1.664806        -0.798761         2.027464
 H         3.938569         1.107800         1.934223
 H         4.155005        -0.683325         1.583107
 H         4.491005         1.913978        -1.168861
 H         4.373659         0.431238        -2.272305
 H         1.749812         2.388940         0.004651
