19
Iteration:  2175
 C        -0.070529        -0.068145        -0.069679
 C         1.388926        -0.022058         0.141048
 C         2.044518        -0.609580         1.333444
 C         3.601931        -0.334797         1.061703
 C         3.246487         0.356958        -0.272964
 C         3.738526         1.486642        -1.281804
 O         2.361328         1.984711        -1.362465
 C         2.178185         1.374609        -0.044159
 O         2.360479        -0.529307        -0.965161
 H        -0.576943        -0.946664         0.383861
 H        -0.562705         0.881007         0.289070
 H        -0.627066        -0.109323        -1.144191
 H         1.746030        -0.160377         2.231121
 H         1.734272        -1.645399         1.357736
 H         3.939146         0.347156         1.800507
 H         4.210005        -1.203288         0.850961
 H         4.412161         2.357224        -1.029136
 H         4.052410         0.986402        -2.230360
 H         2.136369         2.104189         0.811172
