19
Iteration:  4010charge 0 multiplicity 1
 C        -0.107080        -0.175398        -0.137295
 C         1.399087         0.203360         0.093652
 C         1.887061         0.235384         1.581404
 C         3.385500         0.326858         1.413689
 C         3.252638         0.415724        -0.120832
 C         3.965744         0.711292        -1.499068
 O         2.535343         1.362615        -1.864563
 C         2.110037         1.391348        -0.453356
 O         2.354968        -0.682883        -0.474738
 H        -0.090418        -1.171870        -0.647965
 H        -0.693083        -0.097662         0.826082
 H        -0.541412         0.466663        -0.964188
 H         1.380519         1.032609         2.304245
 H         1.762784        -0.734767         1.998228
 H         3.815896         1.231551         1.844794
 H         3.988174        -0.567468         1.770347
 H         4.787366         1.432961        -1.480023
 H         4.276115        -0.064214        -2.155864
 H         1.903982         2.374002        -0.115966
