19
Iteration:  1033charge 0 multiplicity 1
 C        -0.084299        -0.224614        -0.079593
 C         1.314858         0.092927         0.122355
 C         2.123873        -0.719825         1.298730
 C         3.550114        -0.341584         1.040558
 C         3.284885         0.437246        -0.309231
 C         3.838824         1.447478        -1.273961
 O         2.452916         2.092929        -1.267626
 C         2.086633         1.367031        -0.094500
 O         2.212695        -0.481102        -0.939259
 H        -0.318891        -1.154666         0.454587
 H        -0.549963         0.702622         0.401316
 H        -0.398952        -0.207952        -1.135152
 H         1.787460        -0.323336         2.272704
 H         1.894550        -1.850499         1.159915
 H         4.044199         0.192322         1.868826
 H         4.227492        -1.262608         0.898186
 H         4.682027         2.122743        -0.855430
 H         3.941102         1.289562        -2.390872
 H         2.203434         2.108938         0.675180
