19
Iteration:   137
 C        -0.112599        -0.177985        -0.136405
 C         1.355643        -0.023534         0.116026
 C         2.106301        -0.685280         1.321503
 C         3.614000        -0.374094         0.848216
 C         3.298145         0.349760        -0.391848
 C         3.772983         1.567317        -1.249967
 O         2.382725         2.185253        -1.042415
 C         2.113230         1.306678         0.042475
 O         2.293625        -0.520705        -1.085653
 H        -0.457090        -0.701820        -1.086541
 H        -0.660607        -0.656110         0.684410
 H        -0.544915         0.825723        -0.113194
 H         2.000654        -0.172043         2.302886
 H         1.784728        -1.737353         1.653704
 H         4.098351         0.304905         1.562382
 H         4.284884        -1.345516         0.793903
 H         4.446725         2.122992        -0.577416
 H         3.943528         1.271497        -2.320167
 H         2.054706         2.009509         1.037530
