19
Iteration:   868
 C        -0.141822        -0.242847        -0.156073
 C         1.379784         0.033202         0.064051
 C         2.134409        -0.587307         1.453427
 C         3.608669        -0.335496         0.948168
 C         3.230985         0.391789        -0.341834
 C         3.780519         1.444628        -1.294913
 O         2.445846         2.027520        -1.227094
 C         2.107150         1.339054         0.085460
 O         2.251297        -0.429819        -1.029949
 H        -0.551990        -1.200564         0.178159
 H        -0.673189         0.543211         0.347948
 H        -0.447427        -0.104863        -1.201928
 H         1.883861         0.231774         2.218984
 H         2.014586        -1.578270         1.806199
 H         4.297203         0.291735         1.586701
 H         4.037781        -1.315425         0.860638
 H         4.585949         2.010233        -0.924821
 H         3.988858         1.012183        -2.253177
 H         2.057358         2.137656         0.884109
