19
Iteration:  4065
 C        -0.060052        -0.221360        -0.210303
 C         1.363900         0.162399         0.126415
 C         1.800991         0.342349         1.603937
 C         3.471607         0.286735         1.352718
 C         3.278530         0.338025        -0.179493
 C         3.775165         0.808661        -1.479572
 O         2.590336         1.521938        -1.827218
 C         2.186944         1.328729        -0.460414
 O         2.351883        -0.813006        -0.393205
 H        -0.178660        -1.301552         0.000941
 H        -0.880229         0.391917         0.318154
 H        -0.115371        -0.077038        -1.321168
 H         1.483192         1.357483         2.112618
 H         1.554595        -0.456687         2.295955
 H         4.050623         1.144301         1.738084
 H         4.034040        -0.694301         1.497378
 H         4.588826         1.506688        -1.521469
 H         3.947747         0.028064        -2.186218
 H         2.185630         2.290498         0.046797
