19
Iteration:  4706charge 0 multiplicity 1
 C        -0.115400        -0.041481        -0.126191
 C         1.384379         0.068807         0.111835
 C         1.835281         0.170791         1.648508
 C         3.432486         0.352005         1.363802
 C         3.294255         0.325372        -0.158265
 C         3.871116         0.901691        -1.564638
 O         2.596616         1.494847        -1.802848
 C         2.098883         1.263322        -0.454467
 O         2.368235        -0.854885        -0.483628
 H        -0.644279        -0.520219         0.654620
 H        -0.415176         1.057024        -0.324648
 H        -0.354024        -0.514942        -1.075507
 H         1.248127         1.155647         1.842449
 H         1.844837        -0.586045         2.386511
 H         3.919636         1.216436         1.809561
 H         4.033923        -0.587579         1.573470
 H         4.666688         1.556875        -1.384925
 H         4.130935         0.322747        -2.431514
 H         2.072173         2.244158         0.177659
