19
Iteration:  1514
 C        -0.106258        -0.327684        -0.203262
 C         1.394414         0.151433         0.086824
 C         2.099801        -0.537335         1.416171
 C         3.587837        -0.354650         0.979573
 C         3.241881         0.384672        -0.292596
 C         3.728599         1.323109        -1.395724
 O         2.471362         2.094090        -1.196657
 C         2.171301         1.421317         0.050777
 O         2.222188        -0.450555        -0.932283
 H        -0.001944        -1.315070        -0.526352
 H        -0.506406        -0.330929         0.766941
 H        -0.631855         0.305005        -0.888709
 H         1.686885        -0.115206         2.341520
 H         1.820781        -1.594778         1.309325
 H         4.053333         0.385495         1.588653
 H         4.169891        -1.223706         0.935905
 H         4.623689         1.941546        -1.105589
 H         3.748586         0.870183        -2.400515
 H         2.074009         2.165037         0.836716
