19
Iteration:  4813
 C        -0.165636        -0.019919        -0.079318
 C         1.372893         0.149974         0.106619
 C         1.861034         0.211600         1.582034
 C         3.374493         0.285678         1.356690
 C         3.287018         0.270529        -0.206147
 C         3.893376         0.958157        -1.514971
 O         2.625591         1.477688        -1.852736
 C         2.123391         1.265712        -0.464104
 O         2.416612        -0.881271        -0.461165
 H        -0.480945        -1.059132         0.112695
 H        -0.741844         0.458133         0.769949
 H        -0.663234         0.263182        -0.994215
 H         1.433771         1.053786         2.023653
 H         1.539380        -0.541985         2.213498
 H         3.860649         1.192518         1.695699
 H         4.070522        -0.543664         1.595867
 H         4.576598         1.748098        -1.070920
 H         4.349742         0.315017        -2.290766
 H         1.978962         2.181491         0.081549
