19
Iteration:  4395
 C        -0.118049        -0.073513        -0.150557
 C         1.335009         0.215125         0.112698
 C         1.925066         0.171051         1.620441
 C         3.451335         0.244182         1.287532
 C         3.284900         0.336255        -0.176429
 C         3.874201         0.995414        -1.410759
 O         2.556269         1.348092        -1.899226
 C         2.124655         1.280185        -0.428647
 O         2.340173        -0.778521        -0.433495
 H        -0.748594        -0.376640         0.722510
 H        -0.664031         0.790526        -0.514371
 H        -0.263758        -0.852021        -0.934263
 H         1.626547         0.958652         2.306343
 H         1.545280        -0.820184         1.990314
 H         3.930640         1.193836         1.719786
 H         3.991217        -0.607719         1.693857
 H         4.535307         1.955648        -1.077387
 H         4.470808         0.320702        -2.103327
 H         2.258265         2.371107        -0.243231
