19
Iteration:  2917
 C        -0.113911        -0.252170        -0.212956
 C         1.375720         0.070360         0.144992
 C         2.068952        -0.406780         1.457875
 C         3.542292        -0.289927         1.087748
 C         3.249727         0.486532        -0.194715
 C         3.770204         1.206216        -1.417564
 O         2.489271         1.932622        -1.409078
 C         2.132065         1.459668        -0.083191
 O         2.293714        -0.519256        -0.789724
 H        -0.151761        -0.948750        -1.083379
 H        -0.730919        -0.706542         0.566849
 H        -0.758694         0.522361        -0.701364
 H         1.807331         0.490818         2.071919
 H         1.809017        -1.295395         1.954187
 H         4.146784         0.361390         1.701703
 H         4.082497        -1.265510         0.860606
 H         4.590978         1.930997        -1.304319
 H         3.772746         0.755684        -2.396089
 H         2.151897         2.357494         0.623369
