19
Iteration:  4238
 C        -0.189114        -0.120058        -0.127464
 C         1.323031         0.189526         0.100588
 C         1.882553         0.157299         1.570018
 C         3.369224         0.373252         1.321864
 C         3.277093         0.385755        -0.151515
 C         3.968946         0.810080        -1.504700
 O         2.569846         1.399136        -1.820453
 C         2.206226         1.308855        -0.438916
 O         2.373151        -0.763419        -0.462373
 H        -0.250405        -1.129486        -0.475734
 H        -0.667537         0.057295         0.834792
 H        -0.631793         0.597590        -0.821906
 H         1.544357         0.974030         2.205106
 H         1.658676        -0.729429         2.024928
 H         3.662310         1.218802         1.877572
 H         3.996398        -0.435022         1.777058
 H         4.661321         1.758246        -1.526092
 H         4.289806        -0.026937        -2.146418
 H         2.146177         2.361348         0.024689
