19
Iteration:   844
 C        -0.034123        -0.299784        -0.197619
 C         1.413127         0.138511         0.163129
 C         2.088726        -0.589883         1.348739
 C         3.631735        -0.453185         0.947891
 C         3.283103         0.446711        -0.236415
 C         3.724015         1.346673        -1.341167
 O         2.377744         2.102767        -1.242332
 C         2.155596         1.476268         0.030024
 O         2.203341        -0.430746        -0.920099
 H        -0.446585        -1.215946         0.305976
 H        -0.801591         0.482384        -0.057381
 H        -0.046007        -0.485563        -1.294026
 H         1.962376        -0.131263         2.388487
 H         1.776259        -1.613454         1.306131
 H         4.215620        -0.012842         1.796079
 H         4.070856        -1.430802         0.672985
 H         4.526500         2.031053        -1.139323
 H         3.834831         0.737968        -2.219031
 H         2.006793         2.220860         0.761879
