19
Iteration:   850
 C        -0.031457        -0.273147        -0.202246
 C         1.418228         0.073335         0.140259
 C         2.116063        -0.545520         1.375121
 C         3.632907        -0.455655         0.945378
 C         3.259226         0.425479        -0.233088
 C         3.693083         1.301421        -1.321312
 O         2.403023         2.094066        -1.253724
 C         2.130371         1.442358         0.027211
 O         2.202107        -0.370286        -0.930756
 H        -0.306572        -1.222364         0.271479
 H        -0.795593         0.518146        -0.011284
 H        -0.131684        -0.491851        -1.269836
 H         1.990843        -0.209255         2.362145
 H         1.628587        -1.587139         1.425917
 H         4.151501         0.024382         1.755722
 H         4.274346        -1.325980         0.675770
 H         4.498229         2.105283        -1.056200
 H         3.956631         0.928046        -2.372952
 H         1.972495         2.177865         0.891529
