19
Iteration:  2149
 C        -0.094583        -0.147473        -0.162707
 C         1.361440         0.031103         0.127782
 C         2.069314        -0.671220         1.341481
 C         3.630360        -0.301086         1.052656
 C         3.259265         0.443114        -0.212550
 C         3.771105         1.347519        -1.393593
 O         2.440324         1.983578        -1.359371
 C         2.136713         1.438589         0.001781
 O         2.258765        -0.437095        -0.852101
 H        -0.328131        -1.172152         0.131287
 H        -0.661401         0.334780         0.631183
 H        -0.578977         0.190954        -1.028611
 H         1.724695        -0.396783         2.386814
 H         1.983537        -1.751560         1.023408
 H         4.178913         0.372527         1.875987
 H         4.101299        -1.204643         0.634390
 H         4.458155         2.219172        -1.083459
 H         4.030959         0.850488        -2.388384
 H         1.848850         2.235802         0.637772
