19
Iteration:  3250charge 0 multiplicity 1
 C        -0.187897        -0.109678        -0.215934
 C         1.370123         0.156652         0.131829
 C         1.971245        -0.236320         1.522507
 C         3.547257        -0.010497         1.320985
 C         3.367045         0.374284        -0.198349
 C         3.749145         1.114469        -1.492996
 O         2.462764         1.699837        -1.635307
 C         2.147491         1.396564        -0.136257
 O         2.375811        -0.637468        -0.735655
 H        -0.644353         0.841796        -0.491636
 H        -0.074940        -0.788869        -1.055913
 H        -0.626102        -0.621383         0.669026
 H         1.477286         0.308636         2.286362
 H         1.645323        -1.341356         1.875243
 H         3.911728         0.810004         1.935350
 H         4.133483        -0.870826         1.519176
 H         4.696772         1.812100        -1.516725
 H         3.885472         0.300145        -2.363033
 H         2.155399         2.419443         0.385804
