19
Iteration:  4101charge 0 multiplicity 1
 C        -0.083284        -0.123679        -0.073380
 C         1.314437         0.202279         0.139340
 C         1.847799         0.119926         1.628076
 C         3.451928         0.306046         1.402547
 C         3.311970         0.471144        -0.067935
 C         3.848870         0.823354        -1.460494
 O         2.604863         1.332277        -1.918542
 C         2.133699         1.373813        -0.550973
 O         2.359691        -0.660730        -0.552319
 H        -0.418234        -0.837751         0.690569
 H        -0.881263         0.700358        -0.108669
 H        -0.204840        -0.716803        -0.995801
 H         1.309787         0.704337         2.397475
 H         1.559002        -1.010479         1.722917
 H         3.953879         1.190368         1.979536
 H         4.051449        -0.576720         1.705191
 H         4.673832         1.578808        -1.362167
 H         4.147305        -0.098725        -2.087569
 H         2.025648         2.331945        -0.129683
