19
Iteration:   159
 C        -0.159185        -0.265455        -0.233765
 C         1.380051         0.025251         0.043802
 C         2.172570        -0.620188         1.287798
 C         3.696045        -0.365478         0.949446
 C         3.268226         0.358311        -0.321473
 C         3.716384         1.440239        -1.347952
 O         2.413921         2.157629        -1.057181
 C         2.173426         1.331883         0.183588
 O         2.168086        -0.372795        -0.995464
 H        -0.124870        -0.394128        -1.378506
 H        -0.585329        -1.170384         0.203294
 H        -0.751839         0.593104         0.042863
 H         1.671979        -0.388159         2.231121
 H         2.106114        -1.774953         1.255035
 H         4.335906         0.177068         1.639844
 H         4.151148        -1.450765         0.793207
 H         4.553849         2.002297        -0.913915
 H         3.613121         1.052900        -2.381531
 H         2.289023         2.060157         1.112509
