19
Iteration:  2939charge 0 multiplicity 1
 C        -0.027283        -0.207178        -0.307379
 C         1.425458         0.131974         0.151992
 C         2.028822        -0.264588         1.605531
 C         3.597640        -0.263427         1.109407
 C         3.309145         0.346848        -0.282180
 C         3.708700         1.214849        -1.418531
 O         2.429698         2.013770        -1.410055
 C         2.097251         1.363424        -0.081015
 O         2.268263        -0.627907        -0.790100
 H        -0.112785        -0.463990        -1.380268
 H        -0.442910        -1.018265         0.290037
 H        -0.710421         0.691752        -0.330570
 H         1.615051         0.212150         2.521737
 H         1.755520        -1.272872         1.582295
 H         4.317965         0.371413         1.576097
 H         3.986770        -1.324102         0.956487
 H         4.544785         1.901751        -1.180015
 H         3.739588         0.829776        -2.425852
 H         2.009322         2.139494         0.757048
