19
Iteration:  1370charge 0 multiplicity 1
 C        -0.086923        -0.271049        -0.167089
 C         1.384495         0.067928         0.115983
 C         2.084459        -0.592327         1.389760
 C         3.579692        -0.485592         1.026275
 C         3.314002         0.470605        -0.229660
 C         3.697253         1.398605        -1.330903
 O         2.432768         2.086686        -1.304325
 C         2.168582         1.384469         0.075611
 O         2.249565        -0.374458        -1.004338
 H        -0.118709        -1.337378        -0.229805
 H        -0.662436         0.132175         0.656410
 H        -0.273604         0.204216        -1.112539
 H         1.574976        -0.058703         2.260869
 H         1.588932        -1.635725         1.424413
 H         4.081041         0.106187         1.766576
 H         4.272488        -1.318276         0.730660
 H         4.660742         2.006408        -1.226412
 H         3.687644         0.878500        -2.377890
 H         2.118124         2.071045         0.979831
