19
Iteration:  2233
 C        -0.091382        -0.285893        -0.231538
 C         1.377461         0.008996         0.125928
 C         2.076548        -0.505923         1.448541
 C         3.562641        -0.344200         0.964947
 C         3.191006         0.371391        -0.290415
 C         3.742547         1.382817        -1.429581
 O         2.503521         2.147377        -1.240699
 C         2.184948         1.452500         0.025253
 O         2.237427        -0.501311        -0.854400
 H        -0.425327        -1.322635         0.193254
 H        -0.839052         0.440726         0.254493
 H        -0.059003        -0.376579        -1.434930
 H         1.845268        -0.037896         2.465872
 H         1.770841        -1.563561         1.438619
 H         4.195916         0.024295         1.731643
 H         4.149766        -1.232299         0.614442
 H         4.667507         1.967786        -1.203214
 H         3.803883         0.813289        -2.364751
 H         2.054257         2.109915         0.966410
