19
Iteration:   398
 C        -0.093172        -0.242167        -0.092998
 C         1.345915         0.110839         0.090976
 C         1.995309        -0.691023         1.275574
 C         3.601220        -0.385393         0.988601
 C         3.339212         0.410658        -0.231526
 C         3.745090         1.440291        -1.346919
 O         2.436756         2.046157        -1.389888
 C         2.103480         1.461284        -0.020715
 O         2.311304        -0.413808        -0.784713
 H        -0.060681        -1.113221        -0.867748
 H        -0.269280        -0.687955         0.944773
 H        -0.798482         0.595536        -0.300974
 H         1.851709        -0.334917         2.304747
 H         1.705934        -1.780189         1.137906
 H         3.930034         0.148623         1.805564
 H         3.925473        -1.443673         0.791744
 H         4.528263         2.054943        -0.931942
 H         4.166966         1.096401        -2.261631
 H         2.151267         2.209712         0.707262
