19
Iteration:  1121charge 0 multiplicity 1
 C        -0.095388        -0.196134        -0.241112
 C         1.338614         0.091644         0.171998
 C         2.068652        -0.502246         1.397067
 C         3.624758        -0.328339         0.927113
 C         3.352942         0.392037        -0.341163
 C         3.755088         1.486015        -1.392913
 O         2.392635         2.141215        -1.145676
 C         2.152352         1.301341         0.032627
 O         2.243442        -0.654734        -0.913673
 H        -0.130141        -1.179560        -0.787594
 H        -0.899949        -0.231885         0.594615
 H        -0.401144         0.639340        -0.911121
 H         1.788951        -0.002067         2.333888
 H         1.787318        -1.637720         1.449242
 H         4.090868         0.332747         1.677589
 H         4.023947        -1.411668         0.940905
 H         4.738083         1.945804        -0.948271
 H         3.790655         1.088322        -2.477741
 H         2.214030         1.851138         0.932082
