19
Iteration:  2653
 C        -0.042745        -0.233673        -0.227259
 C         1.351236         0.033069         0.073479
 C         2.074351        -0.439889         1.419185
 C         3.591821        -0.293603         1.068062
 C         3.263010         0.337745        -0.340454
 C         3.675962         1.358670        -1.391989
 O         2.410751         2.122494        -1.237942
 C         2.208492         1.384777         0.065107
 O         2.262575        -0.600124        -0.891846
 H        -0.013191        -0.329883        -1.314452
 H        -0.406317        -1.191311         0.159918
 H        -0.728326         0.694234         0.004271
 H         1.826956         0.140433         2.268530
 H         1.642816        -1.418827         1.701444
 H         4.315986         0.261425         1.620151
 H         4.113090        -1.177862         0.788029
 H         4.617889         1.997524        -1.224545
 H         3.568738         0.987094        -2.411886
 H         2.366090         2.020452         0.989509
