19
Iteration:   602
 C        -0.080145        -0.214536        -0.194588
 C         1.360269         0.087860         0.162810
 C         2.078638        -0.621109         1.412653
 C         3.630082        -0.431281         0.965833
 C         3.366480         0.330351        -0.263885
 C         3.692920         1.478540        -1.408159
 O         2.416779         2.066534        -1.243495
 C         2.104367         1.462898        -0.024280
 O         2.256968        -0.460119        -0.865511
 H        -0.359964        -1.242178        -0.093916
 H        -0.913851         0.278853         0.259519
 H        -0.155373        -0.036212        -1.262175
 H         1.884240        -0.142248         2.350081
 H         1.876510        -1.752841         1.450076
 H         4.251137         0.119281         1.680873
 H         4.071190        -1.444468         0.718766
 H         4.529652         2.214808        -1.056668
 H         3.900704         1.124805        -2.432928
 H         1.849556         2.177312         0.825111
