19
Iteration:  4844charge 0 multiplicity 1
 C        -0.127983        -0.096603        -0.184719
 C         1.364561         0.206377         0.155071
 C         1.945681         0.091122         1.590033
 C         3.437442         0.340996         1.354652
 C         3.254175         0.412687        -0.181090
 C         3.897132         0.798574        -1.465086
 O         2.606126         1.360625        -1.875105
 C         2.157595         1.393002        -0.358601
 O         2.247159        -0.736390        -0.461292
 H        -0.180637        -1.171719        -0.455566
 H        -0.774752         0.099254         0.639446
 H        -0.566637         0.441453        -0.975802
 H         1.382316         0.865793         2.151744
 H         1.799167        -0.951351         1.987573
 H         3.829200         1.291375         1.732210
 H         4.210495        -0.353344         1.582528
 H         4.690472         1.674603        -1.480283
 H         4.234265         0.072983        -2.229905
 H         2.129326         2.365786        -0.000477
