19
Iteration:   855
 C        -0.039572        -0.236591        -0.200549
 C         1.348840         0.013873         0.092376
 C         2.144707        -0.553734         1.408457
 C         3.624180        -0.441821         0.944787
 C         3.246173         0.397087        -0.251411
 C         3.688011         1.313425        -1.337470
 O         2.447188         2.059447        -1.263015
 C         2.081308         1.412012         0.065534
 O         2.235343        -0.324431        -0.946858
 H        -0.207547        -1.229253         0.343528
 H        -0.725801         0.553064         0.171993
 H        -0.127098        -0.437827        -1.292053
 H         1.905856        -0.039202         2.436218
 H         1.685865        -1.503274         1.564321
 H         4.169493         0.235618         1.681968
 H         4.301668        -1.256401         0.647991
 H         4.440359         2.006635        -0.937876
 H         3.964114         1.154670        -2.351537
 H         2.090080         2.017579         0.925193
