19
Iteration:    83charge 0 multiplicity 1
 C        -0.133777        -0.235063        -0.099060
 C         1.402311         0.037480         0.129131
 C         2.127013        -0.767437         1.236201
 C         3.612940        -0.465311         0.899955
 C         3.246659         0.434930        -0.305282
 C         3.744345         1.494194        -1.283098
 O         2.416587         2.071689        -1.160281
 C         2.089364         1.324883         0.146912
 O         2.280048        -0.214751        -1.040453
 H        -0.276129        -1.343468         0.169386
 H        -0.794824         0.408770         0.510960
 H        -0.288464        -0.036919        -1.161892
 H         1.806056        -0.526487         2.267459
 H         1.942107        -1.903279         0.978043
 H         4.248558        -0.014103         1.663964
 H         4.077333        -1.491569         0.605800
 H         4.471511         2.120113        -0.694859
 H         4.059885         1.211370        -2.358490
 H         2.084192         2.102024         1.028140
