19
Iteration:   733
 C        -0.053154        -0.227958        -0.124392
 C         1.422674         0.037264         0.099786
 C         2.038435        -0.570266         1.322408
 C         3.563954        -0.430191         0.927152
 C         3.257519         0.455722        -0.233744
 C         3.762632         1.386177        -1.361047
 O         2.363176         1.990747        -1.263334
 C         2.129361         1.454910         0.047460
 O         2.336423        -0.355395        -0.908954
 H         0.024971        -1.264382        -0.526208
 H        -0.592713        -0.204491         0.877817
 H        -0.504244         0.439840        -0.869965
 H         1.670061        -0.025633         2.192855
 H         1.645805        -1.642061         1.502398
 H         4.186632         0.029584         1.676992
 H         3.997361        -1.475590         0.787367
 H         4.579677         1.984062        -1.214839
 H         3.906729         0.714432        -2.173875
 H         1.980833         2.127884         0.866114
