19
Iteration:  4883charge 0 multiplicity 1
 C        -0.020201        -0.180742        -0.165670
 C         1.336885         0.173248         0.173345
 C         1.870501         0.155070         1.679453
 C         3.390417         0.195908         1.379879
 C         3.307914         0.498133        -0.128143
 C         3.832588         0.762766        -1.636503
 O         2.570355         1.458702        -1.927766
 C         2.193699         1.435843        -0.422865
 O         2.327842        -0.680673        -0.417065
 H         0.025841        -1.316174        -0.216908
 H        -0.834863         0.067313         0.554477
 H        -0.177229         0.151408        -1.248668
 H         1.445655         1.063639         2.166999
 H         1.429152        -0.645000         2.305145
 H         3.877116         0.870951         2.136022
 H         3.769665        -0.833571         1.534771
 H         4.638260         1.407966        -1.555259
 H         3.928107        -0.129875        -2.268909
 H         2.138797         2.519205         0.044293
