19
Iteration:   563
 C        -0.096642        -0.205533        -0.119530
 C         1.378605        -0.010025         0.035616
 C         2.050126        -0.495004         1.346812
 C         3.648361        -0.312647         0.971962
 C         3.251745         0.333355        -0.392440
 C         3.725221         1.440241        -1.297653
 O         2.450549         2.127153        -1.081212
 C         2.114608         1.310193         0.017715
 O         2.292991        -0.566595        -0.996385
 H        -0.398232        -1.098477         0.504142
 H        -0.586167         0.773968         0.136865
 H        -0.260632        -0.356638        -1.212105
 H         1.817845         0.243561         2.172080
 H         1.729039        -1.487657         1.586921
 H         4.295430         0.456188         1.413061
 H         4.068798        -1.323261         0.983401
 H         4.562553         2.027492        -1.067898
 H         3.733226         1.194319        -2.343654
 H         1.824368         1.978554         0.814797
