19
Iteration:  1201
 C        -0.091464        -0.156438        -0.059399
 C         1.387732         0.039353         0.135090
 C         2.057901        -0.609253         1.381526
 C         3.559850        -0.383141         0.969891
 C         3.241307         0.350051        -0.302762
 C         3.833687         1.489828        -1.260503
 O         2.356667         2.103910        -1.261060
 C         2.115731         1.338277        -0.045679
 O         2.327409        -0.560826        -1.049809
 H        -0.445946        -1.154383         0.177543
 H        -0.601486         0.603634         0.486962
 H        -0.223399         0.044453        -1.125006
 H         1.597169         0.057209         2.180899
 H         1.740238        -1.651424         1.533218
 H         4.080752         0.344778         1.578699
 H         4.213646        -1.177702         0.873483
 H         4.422289         2.364327        -0.754682
 H         4.331031         1.198032        -2.161463
 H         2.225950         1.960015         0.854054
