19
Iteration:    84charge 0 multiplicity 1
 C        -0.138814        -0.226869        -0.094243
 C         1.401649         0.028814         0.129147
 C         2.123095        -0.763263         1.236180
 C         3.611503        -0.466648         0.897783
 C         3.253589         0.439347        -0.305683
 C         3.759674         1.503013        -1.282257
 O         2.410191         2.061872        -1.159378
 C         2.089126         1.329363         0.146509
 O         2.285484        -0.214911        -1.041068
 H        -0.275403        -1.355102         0.157934
 H        -0.820027         0.378129         0.533242
 H        -0.326594        -0.018566        -1.146802
 H         1.801336        -0.526019         2.245012
 H         1.920412        -1.921767         0.996203
 H         4.232853        -0.017439         1.639489
 H         4.095206        -1.490414         0.599365
 H         4.450818         2.131874        -0.694714
 H         4.062898         1.193699        -2.374691
 H         2.073268         2.071143         1.016989
