19
Iteration:  4598
 C        -0.104681        -0.214825        -0.107096
 C         1.276338         0.164261         0.195852
 C         1.830822         0.324909         1.597628
 C         3.454074         0.346278         1.317468
 C         3.236821         0.301956        -0.223481
 C         3.889393         0.746415        -1.589397
 O         2.648676         1.601687        -1.762131
 C         2.198923         1.317060        -0.452303
 O         2.329160        -0.859630        -0.453309
 H        -0.064208        -1.141088        -0.574828
 H        -0.786113        -0.312963         0.757515
 H        -0.449499         0.447673        -0.867069
 H         1.405598         1.375375         1.812099
 H         1.626831        -0.431646         2.296458
 H         3.708158         1.281873         1.655993
 H         3.988094        -0.513070         1.688276
 H         4.707185         1.582662        -1.558907
 H         4.148968        -0.070536        -2.310456
 H         2.241783         2.154131         0.177081
