19
Iteration:  3503
 C        -0.076427        -0.239442        -0.198840
 C         1.300429         0.128859         0.115213
 C         1.939927         0.105464         1.576044
 C         3.508408         0.122553         1.226773
 C         3.322966         0.298820        -0.233701
 C         3.802286         0.969446        -1.457927
 O         2.597818         1.812629        -1.623291
 C         2.168854         1.389956        -0.358066
 O         2.271714        -0.878795        -0.536379
 H        -0.523570         0.467946        -0.953666
 H        -0.253383        -1.236845        -0.616206
 H        -0.778136        -0.136155         0.564004
 H         1.780769         1.036064         2.152739
 H         1.573441        -0.850832         2.178943
 H         3.847741         1.049889         1.608634
 H         4.121984        -0.711195         1.509103
 H         4.665400         1.603544        -1.394394
 H         3.820988         0.338121        -2.328536
 H         1.789199         2.274817         0.294579
