19
Iteration:  2569
 C        -0.116849        -0.247765        -0.064450
 C         1.318085         0.054104         0.134188
 C         2.004102        -0.596917         1.389355
 C         3.575155        -0.321168         1.035438
 C         3.328839         0.409644        -0.244221
 C         3.789611         1.413096        -1.301235
 O         2.394793         1.989828        -1.424945
 C         2.205356         1.438079        -0.015294
 O         2.296600        -0.438092        -0.947769
 H        -0.252236        -0.425006        -1.137699
 H        -0.450714        -1.124239         0.451964
 H        -0.853554         0.506414         0.191082
 H         1.874068        -0.022664         2.372384
 H         1.913915        -1.653515         1.438655
 H         4.072694         0.249050         1.789045
 H         4.042963        -1.330489         0.730672
 H         4.571542         2.038295        -1.088807
 H         4.072428         1.032040        -2.228175
 H         2.238290         2.223699         0.728568
