19
Iteration:   913
 C        -0.088272        -0.176891        -0.049369
 C         1.400545        -0.001224         0.078845
 C         2.038473        -0.615255         1.385878
 C         3.487795        -0.325467         0.977642
 C         3.324298         0.341993        -0.329402
 C         3.775565         1.405478        -1.311030
 O         2.402220         2.114369        -1.237092
 C         2.134426         1.462457        -0.032714
 O         2.341992        -0.558460        -1.003982
 H        -0.401695        -1.130327        -0.465767
 H        -0.459425        -0.140582         0.983054
 H        -0.560315         0.622579        -0.622623
 H         1.748790        -0.180945         2.407074
 H         1.896248        -1.708339         1.208813
 H         3.988275         0.407356         1.640040
 H         4.171697        -1.179917         0.914403
 H         4.462857         2.061334        -0.874303
 H         3.958909         1.112834        -2.343789
 H         1.960602         2.254269         0.860418
