19
Iteration:   647charge 0 multiplicity 1
 C        -0.141089        -0.161109        -0.107912
 C         1.355567        -0.051923         0.081020
 C         2.119331        -0.594208         1.358713
 C         3.599290        -0.332474         1.096394
 C         3.300538         0.438318        -0.281764
 C         3.739915         1.422915        -1.395535
 O         2.452441         1.977582        -1.255899
 C         2.112555         1.334554         0.023367
 O         2.298767        -0.384404        -1.031749
 H        -0.543689        -0.993245        -0.647565
 H        -0.569473        -0.294159         0.863895
 H        -0.549504         0.701119        -0.588458
 H         1.813736        -0.102837         2.269466
 H         1.792238        -1.674488         1.453500
 H         3.969892         0.359646         1.820439
 H         4.217040        -1.298751         1.123219
 H         4.628102         2.106587        -0.954361
 H         3.943500         1.033873        -2.391055
 H         1.794863         2.106232         0.848898
