19
Iteration:  2381
 C        -0.055034        -0.334845        -0.179297
 C         1.395677         0.092253         0.105937
 C         2.040216        -0.511921         1.406810
 C         3.592108        -0.348516         1.029585
 C         3.248442         0.411396        -0.284226
 C         3.669911         1.287672        -1.445407
 O         2.506019         2.113666        -1.251753
 C         2.146559         1.465971         0.026298
 O         2.269753        -0.481478        -0.822553
 H        -0.084691        -0.306165        -1.284785
 H        -0.493805        -1.330258         0.061115
 H        -0.656854         0.590134         0.039618
 H         1.659372         0.117921         2.369339
 H         1.636506        -1.580064         1.244138
 H         4.116588         0.353844         1.835019
 H         4.189128        -1.255955         0.580623
 H         4.653369         1.755634        -1.491860
 H         3.611378         0.692977        -2.395370
 H         2.050467         2.215938         0.819072
