19
Iteration:  3667
 C        -0.118682        -0.155792        -0.142730
 C         1.347091         0.205149         0.172499
 C         1.927292         0.043186         1.569907
 C         3.444687         0.105925         1.296387
 C         3.265762         0.482092        -0.130184
 C         3.863693         0.827436        -1.468046
 O         2.600962         1.493727        -1.826700
 C         2.057210         1.449951        -0.336196
 O         2.380200        -0.649458        -0.584757
 H         0.007840        -1.304636        -0.282418
 H        -0.816044         0.045382         0.717081
 H        -0.568928         0.210150        -1.058816
 H         1.561137         0.831089         2.107142
 H         1.692482        -0.915937         2.081512
 H         3.820873         0.918587         1.851954
 H         3.880983        -0.827010         1.455390
 H         4.630510         1.702919        -1.323160
 H         4.287262        -0.023571        -2.115154
 H         1.913987         2.447889         0.097181
