19
Iteration:   332
 C        -0.077045        -0.165862        -0.277498
 C         1.331937         0.062183         0.120450
 C         2.073874        -0.526794         1.412094
 C         3.626303        -0.304952         0.967401
 C         3.271564         0.418208        -0.334613
 C         3.680953         1.427834        -1.305734
 O         2.418207         2.167979        -1.162788
 C         2.181133         1.292962         0.035011
 O         2.304378        -0.646718        -0.914317
 H        -0.453134        -1.175540         0.169635
 H        -0.866089         0.520868         0.167428
 H        -0.324554        -0.173359        -1.371931
 H         1.644826        -0.252888         2.380976
 H         2.014458        -1.662655         1.296165
 H         4.327450         0.294410         1.495376
 H         3.847762        -1.381576         0.621885
 H         4.480198         2.157484        -1.008468
 H         3.915680         1.127235        -2.316134
 H         2.333307         1.873851         0.893922
