19
Iteration:  2146charge 0 multiplicity 1
 C        -0.101596        -0.170233        -0.166989
 C         1.356200         0.025455         0.101952
 C         2.060441        -0.659396         1.337157
 C         3.660162        -0.282561         1.052649
 C         3.243155         0.450651        -0.242780
 C         3.772424         1.333716        -1.359737
 O         2.448981         1.978609        -1.348387
 C         2.147355         1.441895         0.009067
 O         2.247924        -0.429829        -0.850147
 H        -0.320239        -1.217322         0.101347
 H        -0.648219         0.215053         0.723291
 H        -0.485318         0.294677        -1.091527
 H         1.757031        -0.339153         2.430649
 H         1.925365        -1.714088         1.011122
 H         4.152412         0.323963         1.869894
 H         4.112395        -1.277979         0.696139
 H         4.408754         2.199395        -1.199572
 H         3.876294         0.808229        -2.317811
 H         1.960163         2.361487         0.671897
