19
Iteration:  1267
 C        -0.013779        -0.265654        -0.219700
 C         1.371233         0.034875         0.077452
 C         2.034614        -0.654847         1.363694
 C         3.559510        -0.455791         1.013450
 C         3.291597         0.505394        -0.279285
 C         3.714128         1.372544        -1.486481
 O         2.394017         2.102850        -1.202787
 C         2.178917         1.466373         0.078996
 O         2.277776        -0.408164        -0.843186
 H        -0.218848        -1.349655        -0.405869
 H        -0.604497         0.173372         0.567052
 H        -0.267700         0.329632        -1.118650
 H         1.798411        -0.297304         2.462097
 H         1.741868        -1.675530         1.325473
 H         4.130508         0.125258         1.744003
 H         3.982441        -1.390383         1.066148
 H         4.640743         2.095317        -1.523216
 H         3.761070         0.815099        -2.387592
 H         2.196131         2.140568         0.927233
