19
Iteration:  1322charge 0 multiplicity 1
 C        -0.177082        -0.143068        -0.053706
 C         1.295305        -0.035545         0.084945
 C         2.103034        -0.673063         1.358882
 C         3.621921        -0.328145         0.981273
 C         3.271428         0.405631        -0.348526
 C         3.769341         1.541594        -1.230418
 O         2.503368         2.176094        -1.298244
 C         2.116057         1.320854        -0.078751
 O         2.264889        -0.645398        -0.976199
 H        -0.343215        -1.071392        -0.643115
 H        -0.567565        -0.204210         0.958665
 H        -0.532808         0.754153        -0.577971
 H         1.864447         0.058103         2.190252
 H         1.766228        -1.626035         1.650085
 H         4.092698         0.389725         1.656028
 H         4.159698        -1.234285         1.014946
 H         4.424734         2.196146        -0.554722
 H         4.298994         1.262286        -2.127463
 H         2.088855         2.027779         0.743608
