19
Iteration:  3983
 C        -0.177406        -0.109722        -0.057484
 C         1.381792         0.209145         0.150916
 C         1.785090         0.087442         1.574402
 C         3.366497         0.323754         1.388280
 C         3.314315         0.478632        -0.101431
 C         3.977872         0.821546        -1.479994
 O         2.564479         1.306007        -2.007119
 C         2.175896         1.321675        -0.520802
 O         2.387310        -0.628147        -0.425600
 H        -0.174810        -1.155184        -0.324058
 H        -0.699425         0.021145         0.886440
 H        -0.729652         0.440541        -0.785754
 H         1.312323         0.680905         2.304117
 H         1.796790        -1.007191         1.903752
 H         3.720149         1.206948         1.953168
 H         3.943429        -0.507870         1.697474
 H         4.749768         1.645817        -1.438002
 H         4.362974        -0.124579        -1.988977
 H         2.153868         2.446141        -0.247573
