19
Iteration:   465
 C        -0.072056        -0.114636        -0.180338
 C         1.414060         0.026687         0.112338
 C         2.071718        -0.523502         1.390096
 C         3.530544        -0.351429         1.021153
 C         3.309007         0.356203        -0.386213
 C         3.685673         1.473961        -1.329115
 O         2.387956         2.208659        -1.173925
 C         2.152802         1.305181        -0.063904
 O         2.324572        -0.705024        -0.906936
 H         0.042230        -0.996869        -0.885796
 H        -0.641201        -0.389671         0.758415
 H        -0.464207         0.814224        -0.635983
 H         1.760265         0.153091         2.207998
 H         1.910849        -1.550904         1.620571
 H         4.071039         0.156341         1.779794
 H         4.032228        -1.315579         0.808654
 H         4.510542         2.100369        -1.100256
 H         3.703892         1.164557        -2.359052
 H         2.117833         1.842820         0.826796
