19
Iteration:  4571
 C        -0.209899        -0.154677        -0.151439
 C         1.334547         0.154493         0.051127
 C         1.986661         0.252328         1.677826
 C         3.483301         0.319918         1.327228
 C         3.260130         0.368522        -0.160999
 C         3.918654         0.805262        -1.449098
 O         2.621337         1.433289        -1.853973
 C         2.108527         1.300937        -0.498376
 O         2.293814        -0.734673        -0.442332
 H        -0.395387        -1.206509        -0.589522
 H        -0.790259        -0.055494         0.762392
 H        -0.635781         0.626530        -0.860804
 H         1.525791         1.038721         2.195525
 H         1.869121        -0.752840         2.201844
 H         3.882648         1.332290         1.704706
 H         4.105415        -0.549561         1.646538
 H         4.581018         1.580602        -1.358202
 H         4.310526        -0.000780        -2.041828
 H         1.874392         2.325317         0.012789
