19
Iteration:   644
 C        -0.145496        -0.160797        -0.101560
 C         1.376725        -0.033441         0.086399
 C         2.098791        -0.618568         1.370069
 C         3.594785        -0.343587         1.072045
 C         3.322867         0.461823        -0.280845
 C         3.735472         1.394708        -1.360908
 O         2.430064         1.974143        -1.257383
 C         2.124187         1.351278         0.013424
 O         2.301342        -0.372433        -1.036844
 H        -0.442990        -1.090759        -0.702553
 H        -0.562593        -0.265815         0.960006
 H        -0.522975         0.732842        -0.694616
 H         1.711263        -0.155588         2.294292
 H         1.787477        -1.735057         1.535362
 H         4.014186         0.319860         1.872628
 H         4.252649        -1.245202         1.067671
 H         4.513923         2.117516        -1.028166
 H         3.928202         0.976544        -2.357315
 H         1.878980         2.209688         0.665072
