19
Iteration:  3133
 C        -0.141674        -0.109424        -0.121578
 C         1.349756         0.110677         0.063632
 C         2.018780        -0.393803         1.545884
 C         3.567959        -0.082893         1.237712
 C         3.302129         0.420422        -0.172952
 C         3.802919         1.182306        -1.486216
 O         2.525830         1.743867        -1.609536
 C         2.105329         1.433444        -0.157346
 O         2.297630        -0.572460        -0.771200
 H        -0.468490        -1.231314        -0.024162
 H        -0.769405         0.454534         0.608663
 H        -0.532050         0.205859        -1.166050
 H         1.530364         0.036073         2.502254
 H         1.659500        -1.453735         1.642387
 H         3.893498         0.661251         2.038965
 H         4.320906        -0.965031         1.180520
 H         4.477904         1.921644        -1.183226
 H         4.191692         0.669854        -2.364376
 H         2.010007         2.326237         0.433714
