19
Iteration:  3388
 C        -0.077994        -0.101440        -0.216835
 C         1.360686         0.111417         0.052452
 C         1.946840        -0.048055         1.588593
 C         3.499737         0.098540         1.287021
 C         3.271769         0.269402        -0.202181
 C         3.814680         1.032133        -1.491911
 O         2.484018         1.742160        -1.624442
 C         2.120932         1.380025        -0.250829
 O         2.343136        -0.793957        -0.657263
 H        -0.287161        -1.187262        -0.338435
 H        -0.543134         0.126014         0.784786
 H        -0.458335         0.524588        -1.114301
 H         1.554358         0.777679         2.180868
 H         1.959030        -1.008820         2.057649
 H         3.999370         1.057908         1.652666
 H         4.218085        -0.672831         1.696110
 H         4.555746         1.826329        -1.172535
 H         4.092444         0.304901        -2.274280
 H         1.981720         2.259579         0.326120
