19
Iteration:   205
 C        -0.168778        -0.235830        -0.168585
 C         1.387820         0.027332         0.072684
 C         2.054510        -0.638674         1.322394
 C         3.647527        -0.462471         0.967703
 C         3.328415         0.427319        -0.260978
 C         3.734468         1.454617        -1.352881
 O         2.367027         2.154689        -1.140931
 C         2.183191         1.384383         0.073895
 O         2.317395        -0.418063        -0.996555
 H        -0.539431         0.654209        -0.629685
 H        -0.321752        -1.111393        -0.781428
 H        -0.510101        -0.443953         0.829907
 H         1.752290        -0.409084         2.331257
 H         1.829617        -1.746053         1.208642
 H         4.246050        -0.160762         1.818498
 H         4.044817        -1.429334         0.607151
 H         4.280300         2.279790        -1.056836
 H         3.803166         1.045196        -2.378796
 H         2.006116         2.172770         0.896256
