19
Iteration:  1320
 C        -0.171615        -0.154495        -0.066981
 C         1.309984        -0.021455         0.096769
 C         2.108635        -0.684813         1.360588
 C         3.599993        -0.329323         0.974879
 C         3.271883         0.417719        -0.344738
 C         3.793504         1.524283        -1.241820
 O         2.489834         2.164890        -1.286508
 C         2.122639         1.333216        -0.078126
 O         2.253272        -0.640365        -0.969252
 H        -0.375950        -1.087621        -0.671407
 H        -0.540748        -0.166055         0.981466
 H        -0.560856         0.786479        -0.554755
 H         1.832750         0.038765         2.082524
 H         1.741727        -1.625961         1.666014
 H         4.091781         0.422499         1.697338
 H         4.287349        -1.206069         0.989572
 H         4.436062         2.147410        -0.617376
 H         4.317387         1.355010        -2.121088
 H         2.004511         2.022999         0.717883
