19
Iteration:     4
 C        -0.085888        -0.196466        -0.163249
 C         1.402998         0.013959         0.025381
 C         2.104977        -0.751362         1.237390
 C         3.621340        -0.483087         0.863921
 C         3.255596         0.413119        -0.315270
 C         3.690552         1.531041        -1.285466
 O         2.382561         2.186188        -1.013239
 C         2.163260         1.318221         0.146279
 O         2.246181        -0.394834        -1.033934
 H        -0.537029         0.118611         0.747777
 H        -0.381514         0.465786        -1.003659
 H        -0.212499        -1.283154        -0.376412
 H         1.934453        -0.231759         2.263051
 H         1.900482        -1.785651         1.338529
 H         4.183355         0.029750         1.723551
 H         4.171838        -1.343404         0.546102
 H         4.589729         2.144882        -0.946240
 H         3.885889         1.269586        -2.294282
 H         2.110793         1.923685         1.143721
