19
Iteration:  4428charge 0 multiplicity 1
 C        -0.129951        -0.169443        -0.048126
 C         1.306546         0.204707         0.164039
 C         1.877400         0.143553         1.598789
 C         3.382047         0.170368         1.334699
 C         3.304186         0.498860        -0.155412
 C         3.903842         0.867644        -1.445526
 O         2.594470         1.351682        -1.917463
 C         2.118713         1.357445        -0.453355
 O         2.401209        -0.620610        -0.530008
 H        -0.526238        -0.486291         0.927504
 H        -0.525763         0.685183        -0.522740
 H        -0.180125        -0.982407        -0.819073
 H         1.488796         0.904017         2.231296
 H         1.480351        -0.807443         2.040096
 H         3.840412         0.932555         2.057583
 H         3.958090        -0.725272         1.483934
 H         4.789775         1.619780        -1.550646
 H         4.101153        -0.091490        -1.989915
 H         2.042438         2.460459        -0.154500
