19
Iteration:    40charge 0 multiplicity 1
 C        -0.144871        -0.272763        -0.194433
 C         1.285529        -0.026968         0.072495
 C         2.102561        -0.620461         1.292397
 C         3.618552        -0.375964         0.876170
 C         3.270856         0.327755        -0.429198
 C         3.625890         1.547390        -1.368864
 O         2.539424         2.310359        -0.896067
 C         2.167715         1.279844         0.128652
 O         2.336023        -0.498637        -1.007080
 H        -0.846667        -0.769784         0.590511
 H        -0.578975         0.736088        -0.389925
 H        -0.325346        -0.753982        -1.162243
 H         1.797592        -0.328980         2.312515
 H         1.937337        -1.798568         1.278670
 H         4.281645         0.119511         1.576033
 H         4.097802        -1.390340         0.571478
 H         4.566693         2.040272        -1.070946
 H         3.392914         1.249380        -2.464925
 H         2.106709         1.721670         1.184942
