19
Iteration:  2445
 C        -0.105646        -0.134223        -0.016964
 C         1.339998         0.099914         0.092590
 C         2.075986        -0.544336         1.401538
 C         3.558165        -0.337143         1.066041
 C         3.275336         0.432885        -0.247490
 C         3.829139         1.411638        -1.264544
 O         2.380271         1.982758        -1.444033
 C         2.122807         1.349025        -0.127779
 O         2.354760        -0.570202        -0.949888
 H        -0.649939         0.716438        -0.447014
 H        -0.372765        -0.910954        -0.787515
 H        -0.588629        -0.249585         0.954943
 H         1.792763        -0.026221         2.420545
 H         1.557274        -1.585552         1.392496
 H         4.302658         0.194126         1.773915
 H         4.122747        -1.239878         0.906687
 H         4.443550         2.136331        -0.700810
 H         4.061441         1.063720        -2.300955
 H         1.969052         2.070977         0.734125
