19
Iteration:  4133
 C        -0.194687        -0.077930        -0.083826
 C         1.326438         0.106096         0.169302
 C         1.870918         0.130438         1.593953
 C         3.441444         0.345988         1.274983
 C         3.290470         0.380647        -0.170203
 C         3.945868         0.927598        -1.448303
 O         2.614242         1.388427        -1.860363
 C         2.142927         1.238449        -0.528555
 O         2.349928        -0.714911        -0.454450
 H        -0.684847        -0.508790         0.812148
 H        -0.664220         0.993989        -0.304463
 H        -0.322963        -0.771492        -0.949706
 H         1.401494         0.864876         2.373953
 H         1.615019        -0.964547         1.980389
 H         3.750394         1.400116         1.689894
 H         3.987878        -0.525975         1.707722
 H         4.661932         1.688560        -1.165491
 H         4.435414         0.302829        -2.255956
 H         2.066871         2.203500        -0.053352
