19
Iteration:  2533
 C        -0.174367        -0.240924        -0.223401
 C         1.403053        -0.004379         0.057471
 C         2.075165        -0.401432         1.475856
 C         3.594171        -0.252154         1.031680
 C         3.280780         0.325376        -0.318747
 C         3.691891         1.357687        -1.392361
 O         2.480443         2.165737        -1.210285
 C         2.159619         1.336287        -0.032971
 O         2.315132        -0.622777        -0.904469
 H        -0.333870         0.285061        -1.145228
 H        -0.388874        -1.302556        -0.290501
 H        -0.792731         0.240227         0.611539
 H         1.789128         0.244672         2.288048
 H         1.780084        -1.373999         1.928090
 H         4.400555         0.284650         1.551216
 H         3.947602        -1.244922         0.912526
 H         4.602566         1.946461        -1.176354
 H         3.486906         0.889657        -2.354698
 H         1.965927         2.004590         0.835202
