19
Iteration:  1345charge 0 multiplicity 1
 C        -0.149648        -0.218916        -0.084497
 C         1.359724         0.040531         0.041460
 C         2.089840        -0.507841         1.354491
 C         3.570471        -0.341247         0.945493
 C         3.280335         0.400675        -0.349832
 C         3.825492         1.426293        -1.244685
 O         2.394389         2.051847        -1.198900
 C         2.141235         1.345262        -0.024186
 O         2.312043        -0.533806        -0.985454
 H        -0.450712        -1.210882        -0.450290
 H        -0.410107        -0.012483         0.951102
 H        -0.525009         0.613520        -0.663798
 H         1.545829        -0.026444         2.250791
 H         1.749532        -1.541911         1.372317
 H         4.237349         0.219264         1.558223
 H         3.989419        -1.306589         0.768515
 H         4.527521         2.056576        -0.590827
 H         4.230910         1.307989        -2.281519
 H         1.939254         1.980845         0.864904
