19
Iteration:  3058charge 0 multiplicity 1
 C        -0.062738        -0.199217        -0.213877
 C         1.362440         0.036159         0.112604
 C         1.984269        -0.194437         1.529226
 C         3.526504        -0.130261         1.108096
 C         3.253287         0.351247        -0.280030
 C         3.740192         1.202254        -1.455741
 O         2.501329         1.910334        -1.400559
 C         2.124468         1.396363        -0.150135
 O         2.359638        -0.672143        -0.775782
 H        -0.561102        -0.111558         0.785183
 H        -0.420025         0.478937        -0.940880
 H        -0.291062        -1.258701        -0.444024
 H         1.619188         0.705619         2.219543
 H         1.542260        -1.037167         2.073843
 H         4.237776         0.466506         1.709948
 H         3.820974        -1.239771         1.068301
 H         4.706288         1.781686        -1.076868
 H         3.922752         0.725748        -2.430186
 H         2.056395         2.229141         0.545572
