19
Iteration:   505
 C        -0.073618        -0.165920        -0.130518
 C         1.352150         0.096082         0.036574
 C         2.198312        -0.647409         1.311516
 C         3.608829        -0.353507         1.035283
 C         3.308182         0.447438        -0.148305
 C         3.726895         1.346456        -1.287594
 O         2.380000         1.982408        -1.282636
 C         2.144611         1.369481         0.036935
 O         2.189688        -0.347086        -1.032707
 H        -0.208420        -1.248926        -0.174297
 H        -0.816690         0.038245         0.611144
 H        -0.503716         0.100899        -1.080951
 H         1.932993        -0.215935         2.285471
 H         1.801147        -1.708400         1.279235
 H         4.205421         0.143943         1.803988
 H         4.268712        -1.297672         0.868626
 H         4.537209         2.039048        -0.942996
 H         4.009314         0.735904        -2.136741
 H         2.016047         2.252391         0.775507
