19
Iteration:  1805
 C        -0.023600        -0.261681        -0.162230
 C         1.381943         0.080658         0.101907
 C         1.982370        -0.578797         1.414216
 C         3.575819        -0.377160         0.996247
 C         3.286142         0.447275        -0.255688
 C         3.690697         1.374638        -1.438760
 O         2.401688         2.141543        -1.236469
 C         2.200717         1.431984         0.062458
 O         2.329591        -0.514202        -0.919126
 H        -0.141025        -1.315574         0.066667
 H        -0.824724         0.380667         0.271327
 H        -0.334011        -0.415275        -1.205262
 H         1.749392        -0.079433         2.410315
 H         1.540955        -1.623613         1.313264
 H         4.207436         0.208282         1.741930
 H         4.099015        -1.402790         0.642404
 H         4.620330         2.057337        -1.387507
 H         3.721359         0.803553        -2.425550
 H         2.079198         2.063517         0.943177
