19
Iteration:  3121
 C        -0.106359        -0.114722        -0.173431
 C         1.340883         0.137428         0.170655
 C         1.982909        -0.406655         1.480653
 C         3.550709        -0.082813         1.222136
 C         3.288863         0.452875        -0.207369
 C         3.856009         1.128138        -1.405500
 O         2.412207         1.769583        -1.549068
 C         2.171034         1.421356        -0.205726
 O         2.286682        -0.559717        -0.782282
 H        -0.303510        -1.184829         0.253606
 H        -0.780785         0.665970         0.298558
 H        -0.132990        -0.103742        -1.341051
 H         1.746794         0.222249         2.363296
 H         1.991735        -1.551983         1.611982
 H         3.987528         0.758383         1.880230
 H         4.202664        -1.016912         1.334502
 H         4.634344         1.820887        -1.371896
 H         3.912589         0.419056        -2.271645
 H         2.093339         2.285155         0.457475
