19
Iteration:   658charge 0 multiplicity 1
 C        -0.163088        -0.174755        -0.100808
 C         1.371854        -0.003170         0.005358
 C         2.100391        -0.535505         1.334537
 C         3.604310        -0.271053         1.073816
 C         3.257897         0.313734        -0.304393
 C         3.794374         1.455670        -1.377642
 O         2.453677         2.093307        -1.243257
 C         2.066657         1.292293         0.047099
 O         2.289087        -0.538026        -0.970332
 H        -0.452793        -0.946281        -0.784754
 H        -0.584190        -0.300317         0.878283
 H        -0.526381         0.789516        -0.374288
 H         1.746210        -0.021042         2.216996
 H         1.969541        -1.669459         1.431854
 H         4.078644         0.468556         1.676641
 H         4.244667        -1.235072         1.073158
 H         4.706430         2.184908        -1.014355
 H         3.970646         1.181795        -2.417183
 H         2.118007         1.840989         1.083793
