19
Iteration:  1577
 C        -0.077590        -0.154616        -0.179106
 C         1.357590        -0.017548         0.137626
 C         2.129310        -0.590376         1.312089
 C         3.663613        -0.351901         1.038269
 C         3.247707         0.426340        -0.290719
 C         3.733209         1.370230        -1.311967
 O         2.347980         2.052237        -1.245847
 C         2.151319         1.423135        -0.012915
 O         2.253834        -0.492607        -0.955272
 H        -0.524646        -1.158350        -0.001606
 H        -0.793835         0.530841         0.364943
 H        -0.178301         0.081689        -1.248148
 H         1.936657        -0.005650         2.290044
 H         1.764317        -1.631494         1.605803
 H         4.211363         0.282986         1.684821
 H         4.323967        -1.244564         0.926495
 H         4.501341         1.942132        -0.782697
 H         4.092956         0.932159        -2.296041
 H         2.115633         2.160554         0.846139
