19
Iteration:  1187charge 0 multiplicity 1
 C        -0.066680        -0.170267        -0.063402
 C         1.388742         0.028381         0.031863
 C         2.042184        -0.636292         1.292223
 C         3.560930        -0.402445         1.034135
 C         3.298030         0.419142        -0.323229
 C         3.771819         1.457573        -1.238633
 O         2.374234         2.107899        -1.357015
 C         2.143354         1.421759        -0.014561
 O         2.322855        -0.514364        -0.902875
 H        -0.345577        -1.211326         0.265115
 H        -0.524465         0.450356         0.782056
 H        -0.625246         0.038137        -1.008387
 H         1.964810        -0.426064         2.326918
 H         1.743881        -1.739859         1.153306
 H         3.961832         0.087829         1.948565
 H         4.025991        -1.419596         0.830989
 H         4.530548         2.092123        -0.732882
 H         3.955289         1.190702        -2.297512
 H         2.045807         2.139852         0.755147
