19
Iteration:  1127
 C        -0.078120        -0.195382        -0.240846
 C         1.373811         0.070133         0.164996
 C         2.024461        -0.534791         1.401921
 C         3.687848        -0.316017         0.986223
 C         3.261734         0.367418        -0.350268
 C         3.728360         1.491592        -1.361188
 O         2.429866         2.093129        -1.154873
 C         2.160151         1.367905         0.002267
 O         2.211164        -0.620145        -0.955375
 H        -0.054830        -1.145006        -0.764505
 H        -0.717553        -0.227254         0.608104
 H        -0.410885         0.589641        -0.916275
 H         1.949166        -0.139980         2.437062
 H         1.810517        -1.549858         1.389223
 H         4.211913         0.250646         1.774947
 H         4.101550        -1.314189         0.999144
 H         4.652291         1.946104        -1.118941
 H         3.741282         1.114592        -2.349253
 H         2.102524         2.006062         0.962301
