19
Iteration:  3036
 C        -0.092369        -0.227450        -0.075038
 C         1.339280         0.128942         0.065226
 C         2.023623        -0.273989         1.463805
 C         3.535193        -0.201726         1.186807
 C         3.285987         0.417162        -0.237541
 C         3.823103         1.203354        -1.365696
 O         2.489311         1.876251        -1.553052
 C         2.134388         1.390790        -0.148801
 O         2.251538        -0.586231        -0.850700
 H        -0.828619         0.305287         0.557160
 H        -0.288336        -0.106720        -1.115071
 H        -0.263270        -1.295106         0.181098
 H         1.799330         0.263054         2.481766
 H         1.678816        -1.296485         1.756547
 H         3.965621         0.598320         1.841729
 H         4.143924        -1.171148         1.308991
 H         4.708819         1.935430        -0.937638
 H         4.140216         0.740537        -2.316452
 H         2.044373         2.242794         0.518687
