19
Iteration:   781charge 0 multiplicity 1
 C        -0.124994        -0.133223        -0.128102
 C         1.337561        -0.024585         0.042210
 C         2.104116        -0.572697         1.379288
 C         3.626543        -0.200496         0.903126
 C         3.303009         0.393728        -0.362037
 C         3.751675         1.411844        -1.246109
 O         2.392467         2.018414        -1.141339
 C         2.136533         1.259981         0.003383
 O         2.261962        -0.532470        -1.021742
 H        -0.626114        -0.918618         0.379264
 H        -0.364402         0.806402         0.268959
 H        -0.415823        -0.051546        -1.160632
 H         1.740554        -0.129397         2.357673
 H         1.869113        -1.586361         1.474416
 H         4.086594         0.544466         1.606261
 H         4.339898        -0.990920         0.920765
 H         4.506938         1.952892        -0.628598
 H         4.232711         1.130170        -2.192210
 H         2.087452         1.953869         0.969770
