19
Iteration:  2669charge 0 multiplicity 1
 C        -0.028325        -0.258592        -0.284924
 C         1.392205         0.071779         0.162976
 C         2.065066        -0.457016         1.459591
 C         3.589815        -0.363265         0.936317
 C         3.283272         0.415231        -0.276301
 C         3.682301         1.276670        -1.445317
 O         2.422011         2.091092        -1.223595
 C         2.140819         1.449890        -0.017753
 O         2.279432        -0.498778        -0.836577
 H        -0.254701         0.019113        -1.330224
 H        -0.296184        -1.260055         0.120353
 H        -0.802840         0.186788         0.305284
 H         1.760565         0.019261         2.463565
 H         1.786989        -1.541705         1.603130
 H         4.143675         0.248992         1.718126
 H         3.985036        -1.456458         0.871017
 H         4.575815         1.945958        -1.138041
 H         3.874326         0.751311        -2.401921
 H         2.048677         2.107606         0.832105
