19
Iteration:  1435charge 0 multiplicity 1
 C        -0.093803        -0.114545        -0.146713
 C         1.397861        -0.009506         0.022124
 C         2.079871        -0.604780         1.418516
 C         3.582306        -0.292783         0.970578
 C         3.241520         0.368547        -0.381966
 C         3.723072         1.488494        -1.346686
 O         2.407794         2.027899        -1.149263
 C         2.150397         1.255495         0.049427
 O         2.325865        -0.521738        -0.996587
 H        -0.552404        -1.051116         0.109361
 H        -0.522114         0.688870         0.461927
 H        -0.532741         0.097155        -1.117436
 H         1.813735         0.167720         2.267378
 H         1.678267        -1.578565         1.873800
 H         3.972921         0.478237         1.544516
 H         4.245133        -1.155254         1.132422
 H         4.656033         1.983353        -0.905382
 H         4.020993         1.281861        -2.454564
 H         2.053628         1.997677         0.887322
