19
Iteration:  2273
 C        -0.030706        -0.270128        -0.145502
 C         1.348914         0.073824         0.102283
 C         2.059183        -0.559347         1.351317
 C         3.502453        -0.352941         1.054193
 C         3.244266         0.449770        -0.259135
 C         3.752541         1.350900        -1.346005
 O         2.450879         2.005508        -1.278342
 C         2.183686         1.437062         0.036489
 O         2.296552        -0.451291        -0.974285
 H        -0.359921        -1.234201        -0.477592
 H        -0.469166        -0.011630         0.840518
 H        -0.732955         0.390641        -0.700689
 H         1.644545        -0.123691         2.209802
 H         1.814703        -1.598836         1.457495
 H         4.100805         0.388647         1.598411
 H         4.092882        -1.311337         0.917299
 H         4.619763         2.096996        -1.284425
 H         3.848124         0.881839        -2.349177
 H         2.304950         2.213315         0.799779
