19
Iteration:   110charge 0 multiplicity 1
 C        -0.092726        -0.166200        -0.035324
 C         1.415281         0.007392        -0.030889
 C         2.089941        -0.711343         1.205685
 C         3.615426        -0.501701         0.892819
 C         3.303124         0.470817        -0.230190
 C         3.682093         1.615629        -1.181237
 O         2.384406         2.143961        -1.188453
 C         2.114269         1.338878         0.062601
 O         2.299743        -0.517586        -1.048100
 H        -0.457253        -1.099330        -0.389178
 H        -0.329132        -0.116761         1.058602
 H        -0.611371         0.717602        -0.484981
 H         1.854923        -0.288901         2.203722
 H         1.812841        -1.725899         1.251671
 H         4.227518        -0.170993         1.756308
 H         4.048777        -1.362148         0.502250
 H         4.332801         2.264083        -0.578864
 H         4.005948         1.290960        -2.142632
 H         2.183939         1.939395         0.892236
