19
Iteration:  4025
 C        -0.098145        -0.215390        -0.243307
 C         1.270846         0.166968         0.172989
 C         1.843142         0.293925         1.649230
 C         3.485765         0.366845         1.283765
 C         3.307673         0.345060        -0.137596
 C         3.851927         0.795627        -1.483042
 O         2.594063         1.446089        -1.851298
 C         2.193181         1.312540        -0.447473
 O         2.350595        -0.748209        -0.434174
 H        -0.157581        -1.244081        -0.508859
 H        -0.860657        -0.187845         0.592497
 H        -0.500280         0.482533        -0.957156
 H         1.493411         1.197819         2.019299
 H         1.421487        -0.526873         2.308977
 H         4.051634         1.265607         1.743965
 H         3.902673        -0.555936         1.724074
 H         4.637650         1.624080        -1.380733
 H         3.997074        -0.225506        -2.081439
 H         2.201763         2.296242         0.061125
