19
Iteration:  3862
 C        -0.184170        -0.167384        -0.125221
 C         1.294309         0.201990         0.169340
 C         1.884589         0.131292         1.577379
 C         3.448977         0.312954         1.387664
 C         3.267104         0.420877        -0.207879
 C         4.039012         0.824424        -1.460222
 O         2.579658         1.406284        -1.891194
 C         2.169066         1.349314        -0.451339
 O         2.283178        -0.713291        -0.466945
 H        -0.600443        -0.161343         0.838679
 H        -0.523569         0.653863        -0.783541
 H        -0.204128        -1.084108        -0.675557
 H         1.383000         0.727670         2.319495
 H         1.712656        -1.018390         1.878588
 H         3.787004         1.258141         1.849794
 H         4.042258        -0.493738         1.789178
 H         4.625925         1.655323        -1.361057
 H         4.320203         0.142984        -2.292405
 H         2.174487         2.429143        -0.021845
