19
Iteration:  1724charge 0 multiplicity 1
 C        -0.092148        -0.164949        -0.101794
 C         1.343206         0.052312         0.075343
 C         2.015477        -0.600051         1.378136
 C         3.623586        -0.406538         1.019158
 C         3.349475         0.476464        -0.201843
 C         3.756105         1.432415        -1.359588
 O         2.376283         1.945068        -1.294105
 C         2.111261         1.452095        -0.004193
 O         2.342891        -0.463176        -0.989701
 H        -0.112405        -1.247194        -0.174544
 H        -0.589787         0.014278         0.829459
 H        -0.531257         0.378779        -0.895473
 H         1.824938        -0.203676         2.447035
 H         1.617089        -1.631903         1.407066
 H         4.302325         0.147641         1.682037
 H         4.052510        -1.286789         0.738666
 H         4.416562         2.319138        -1.257182
 H         3.861142         0.877933        -2.271629
 H         1.915571         2.129727         0.862929
