19
Iteration:  4188
 C        -0.143188        -0.265354        -0.247679
 C         1.380090         0.220651         0.166758
 C         1.823712         0.274058         1.677293
 C         3.482852         0.205684         1.325524
 C         3.274491         0.425792        -0.153364
 C         3.895667         0.786550        -1.588316
 O         2.584443         1.487334        -1.866060
 C         2.164898         1.439447        -0.403701
 O         2.341339        -0.745982        -0.369521
 H        -0.180132        -1.303685         0.174337
 H        -1.027873         0.423693         0.115123
 H         0.011286        -0.316604        -1.336157
 H         1.516597         1.186246         2.325556
 H         1.444538        -0.734831         2.196046
 H         4.123516         0.985915         1.917309
 H         3.636324        -0.848880         1.606192
 H         4.707991         1.426614        -1.701277
 H         3.919037        -0.079295        -2.295391
 H         2.047933         2.443587        -0.056804
