19
Iteration:  3416
 C        -0.158341        -0.037465        -0.117039
 C         1.328504         0.121903         0.152644
 C         1.907651        -0.159739         1.539257
 C         3.490599         0.085488         1.251923
 C         3.258636         0.408903        -0.245186
 C         3.986880         1.134666        -1.455686
 O         2.464093         1.534585        -1.749679
 C         2.119355         1.309270        -0.261846
 O         2.361053        -0.699613        -0.620762
 H        -0.274061        -0.924694        -0.775511
 H        -0.603110        -0.219726         0.860734
 H        -0.429145         0.838593        -0.601533
 H         1.563396         0.650121         2.268502
 H         1.819279        -1.261200         1.997304
 H         3.835584         0.945219         1.816330
 H         4.248858        -0.667222         1.535354
 H         4.426772         2.074074        -1.086903
 H         4.499317         0.598746        -2.232968
 H         2.057234         2.329581         0.261021
