19
Iteration:   377
 C        -0.148875        -0.213230        -0.008949
 C         1.380651         0.045082         0.061385
 C         2.043190        -0.551529         1.382411
 C         3.574658        -0.342067         1.045536
 C         3.295785         0.460898        -0.262571
 C         3.796348         1.456764        -1.261200
 O         2.404954         1.973691        -1.312050
 C         2.133736         1.363394         0.014005
 O         2.358449        -0.474602        -1.093166
 H        -0.344749        -1.077390        -0.736057
 H        -0.802926        -0.370113         0.915452
 H        -0.574971         0.634809        -0.588092
 H         1.681899        -0.148350         2.334636
 H         1.811999        -1.639945         1.333946
 H         3.973104         0.184997         1.818322
 H         3.944241        -1.265094         0.556651
 H         4.602916         2.166601        -0.949838
 H         4.131466         1.037747        -2.209751
 H         2.006611         1.969027         0.849407
