19
Iteration:  4459charge 0 multiplicity 1
 C        -0.105260        -0.291595        -0.144177
 C         1.311893         0.160539         0.098251
 C         1.913523         0.271329         1.559724
 C         3.466763         0.304105         1.407182
 C         3.320065         0.313889        -0.203288
 C         3.869722         0.825073        -1.536144
 O         2.620173         1.577337        -1.788739
 C         2.191948         1.325466        -0.446302
 O         2.234639        -0.743617        -0.449426
 H        -0.656638        -0.597230         0.755617
 H        -0.617872         0.680811        -0.408036
 H        -0.110486        -1.091341        -0.928834
 H         1.443263         1.097690         2.064650
 H         1.647113        -0.667989         1.985804
 H         3.747092         1.317187         1.899658
 H         4.021043        -0.590132         1.731070
 H         4.762352         1.341343        -1.546251
 H         3.903754         0.023052        -2.275280
 H         2.112123         2.324486         0.199286
