19
Iteration:  3318
 C        -0.109430        -0.277202        -0.092452
 C         1.354871         0.134840         0.134368
 C         1.914816        -0.052730         1.539422
 C         3.508450        -0.008389         1.195528
 C         3.242193         0.391825        -0.243940
 C         3.907298         1.076071        -1.407271
 O         2.554208         1.666975        -1.668604
 C         2.159989         1.472020        -0.191287
 O         2.285155        -0.651408        -0.724476
 H        -0.662984        -0.458168         0.892587
 H        -0.662735         0.554000        -0.538460
 H        -0.097482        -1.183856        -0.695693
 H         1.648461         0.769777         2.203228
 H         1.554046        -1.081731         1.785649
 H         4.182267         0.586575         1.812257
 H         3.815284        -1.076850         1.352311
 H         4.580964         2.032058        -1.303238
 H         4.067360         0.445749        -2.326058
 H         1.958195         2.417775         0.381390
