19
Iteration:  4738charge 0 multiplicity 1
 C        -0.094065        -0.242829        -0.171035
 C         1.314453         0.259928         0.089976
 C         1.872465         0.171414         1.570868
 C         3.495612         0.283668         1.294674
 C         3.257871         0.385634        -0.162926
 C         3.849905         0.728140        -1.507411
 O         2.622595         1.470701        -1.768183
 C         2.164265         1.441524        -0.372109
 O         2.315067        -0.694830        -0.447175
 H        -0.563067        -0.706727         0.689556
 H        -0.910727         0.513975        -0.507187
 H        -0.043403        -0.953453        -0.997462
 H         1.458229         0.965949         2.225842
 H         1.721846        -0.766532         2.042053
 H         3.940526         1.151655         1.793091
 H         3.917404        -0.731216         1.566026
 H         4.661432         1.381215        -1.575747
 H         3.874813        -0.034743        -2.251931
 H         2.168262         2.521889         0.050491
