19
Iteration:  1357
 C        -0.061698        -0.186482        -0.096303
 C         1.380970         0.024434         0.029173
 C         2.002702        -0.591011         1.296647
 C         3.598793        -0.372398         0.959791
 C         3.272036         0.377803        -0.270434
 C         3.763283         1.452263        -1.293880
 O         2.436402         2.027381        -1.231064
 C         2.117985         1.388099         0.055620
 O         2.272590        -0.454596        -0.982007
 H        -0.177669        -1.249518        -0.321198
 H        -0.658206        -0.102710         0.810127
 H        -0.636126         0.292831        -0.870816
 H         2.084132         0.184779         2.145961
 H         1.779365        -1.590110         1.733815
 H         4.010153         0.201644         1.736091
 H         4.157311        -1.304543         0.858024
 H         4.503101         2.276094        -0.938191
 H         4.083440         0.963669        -2.298845
 H         2.164703         2.158974         0.875422
