19
Iteration:  4595
 C        -0.120926        -0.211072        -0.117016
 C         1.244981         0.143432         0.230664
 C         1.832065         0.322473         1.593717
 C         3.456094         0.354742         1.304417
 C         3.247692         0.302585        -0.232000
 C         3.892090         0.750888        -1.577073
 O         2.658288         1.582202        -1.773796
 C         2.187128         1.342809        -0.442887
 O         2.352860        -0.863289        -0.468354
 H        -0.134231        -1.204942        -0.594153
 H        -0.842027        -0.249232         0.691250
 H        -0.512711         0.512965        -0.809835
 H         1.434446         1.302857         1.834955
 H         1.586338        -0.430992         2.362065
 H         3.812662         1.347179         1.624899
 H         4.051030        -0.499178         1.674241
 H         4.648006         1.479817        -1.499034
 H         4.160056        -0.006302        -2.281268
 H         2.301689         2.251614         0.245001
