19
Iteration:   629charge 0 multiplicity 1
 C        -0.023130        -0.172458        -0.110055
 C         1.402272         0.096583         0.095329
 C         2.014297        -0.700108         1.341448
 C         3.588466        -0.368196         0.982644
 C         3.281798         0.444308        -0.162346
 C         3.751518         1.384819        -1.322011
 O         2.322838         2.008012        -1.360874
 C         2.157866         1.466933         0.031432
 O         2.320630        -0.433966        -0.939108
 H        -0.142500        -1.235762        -0.450706
 H        -0.700016        -0.081390         0.759841
 H        -0.532026         0.489579        -0.849360
 H         1.748947        -0.177207         2.298847
 H         1.861933        -1.731154         1.273945
 H         4.162187         0.212413         1.734300
 H         4.058921        -1.250498         0.622637
 H         4.496786         2.126284        -1.153618
 H         3.989123         0.747596        -2.188278
 H         2.227081         2.006123         0.967148
