19
Iteration:  4679charge 0 multiplicity 1
 C        -0.141620        -0.061992        -0.139021
 C         1.329365         0.278151         0.115898
 C         1.914792         0.141465         1.555191
 C         3.453853         0.229290         1.322083
 C         3.335181         0.303118        -0.131216
 C         3.891358         0.916935        -1.404618
 O         2.483228         1.374751        -1.900833
 C         2.144818         1.306324        -0.532375
 O         2.365399        -0.764443        -0.416150
 H        -0.475167        -1.009041         0.432837
 H        -0.633973         0.817903         0.255686
 H        -0.342351        -0.130732        -1.240216
 H         1.543556         0.919275         2.183646
 H         1.700918        -0.750938         2.210691
 H         3.819281         1.158831         1.879554
 H         4.153026        -0.509108         1.705415
 H         4.474738         1.859520        -1.088181
 H         4.442837         0.308354        -2.165220
 H         2.154497         2.283448        -0.049513
