19
Iteration:  1948
 C        -0.062705        -0.253960        -0.238635
 C         1.395340         0.023513         0.200230
 C         2.020105        -0.538864         1.453136
 C         3.564356        -0.387597         0.951892
 C         3.288065         0.390519        -0.300086
 C         3.728418         1.422406        -1.403443
 O         2.446557         2.079090        -1.296725
 C         2.174961         1.434084         0.023030
 O         2.244755        -0.451745        -0.836202
 H        -0.155864        -1.313789        -0.140611
 H        -0.756079         0.302856         0.358378
 H        -0.136761        -0.152542        -1.330570
 H         1.758625        -0.029877         2.444303
 H         1.713860        -1.613036         1.554156
 H         4.324055         0.046107         1.634133
 H         3.980831        -1.448820         0.683509
 H         4.623035         2.061518        -1.178867
 H         3.943654         0.973119        -2.393971
 H         1.884789         2.170613         0.762071
