19
Iteration:  2227charge 0 multiplicity 1
 C        -0.085862        -0.258184        -0.213638
 C         1.374980        -0.035290         0.084911
 C         2.050737        -0.525580         1.468490
 C         3.605325        -0.316649         0.934043
 C         3.227540         0.392848        -0.333225
 C         3.730130         1.338981        -1.395977
 O         2.475701         2.176800        -1.239582
 C         2.171693         1.442429         0.037230
 O         2.247567        -0.520549        -0.848550
 H        -0.507275        -1.175194         0.081737
 H        -0.765063         0.518687         0.023023
 H        -0.224744        -0.388152        -1.234278
 H         1.844844         0.042124         2.380588
 H         1.771827        -1.580415         1.715127
 H         4.221394         0.125226         1.809452
 H         4.017627        -1.298149         0.707764
 H         4.611966         1.883017        -1.036119
 H         3.933778         1.004255        -2.440245
 H         2.173647         2.020144         0.917184
