19
Iteration:  1472
 C        -0.088825        -0.143943        -0.049702
 C         1.338217         0.093529         0.006534
 C         2.092605        -0.714605         1.417363
 C         3.568761        -0.411891         1.004370
 C         3.273376         0.418739        -0.280270
 C         3.782118         1.466932        -1.307011
 O         2.449057         2.010878        -1.374032
 C         2.033653         1.436749        -0.041130
 O         2.315689        -0.465072        -0.900535
 H        -0.275569        -1.230423        -0.181493
 H        -0.465969         0.127968         0.937020
 H        -0.598525         0.404298        -0.883961
 H         2.066949        -0.443812         2.431260
 H         1.815263        -1.724115         1.244338
 H         4.108576         0.184522         1.851391
 H         4.177804        -1.264093         0.720476
 H         4.390765         2.234401        -0.762576
 H         4.211288         1.216090        -2.247749
 H         1.878417         2.125324         0.769171
