19
Iteration:  1935charge 0 multiplicity 1
 C        -0.077543        -0.282507        -0.151555
 C         1.324010         0.127473         0.114544
 C         2.125424        -0.596545         1.405394
 C         3.542262        -0.415823         1.054635
 C         3.249558         0.502154        -0.250208
 C         3.769226         1.329748        -1.388900
 O         2.447778         2.036423        -1.312357
 C         2.100099         1.475809         0.016733
 O         2.316744        -0.445529        -0.950476
 H        -0.324607        -1.333941        -0.165834
 H        -0.916770         0.085325         0.505588
 H        -0.283530         0.269177        -1.093317
 H         1.862749        -0.084985         2.415304
 H         1.862837        -1.731310         1.467836
 H         4.071700         0.060335         1.858583
 H         4.012089        -1.394988         0.749165
 H         4.510969         2.057015        -1.125552
 H         3.867659         0.775269        -2.349176
 H         2.254664         2.274562         0.827394
