19
Iteration:  4349charge 0 multiplicity 1
 C        -0.141132        -0.206328        -0.197289
 C         1.307278         0.155897         0.079645
 C         1.916287         0.246832         1.573231
 C         3.447321         0.305401         1.408251
 C         3.276089         0.364282        -0.143024
 C         3.840680         0.701234        -1.580334
 O         2.595784         1.578820        -1.794059
 C         2.174893         1.337807        -0.458010
 O         2.383205        -0.734473        -0.397880
 H        -0.462928        -1.107385         0.310029
 H        -0.911841         0.612406         0.136281
 H        -0.215663        -0.367376        -1.268232
 H         1.450547         0.993522         2.208285
 H         1.651309        -0.643758         2.091607
 H         3.889267         1.182000         2.030176
 H         4.043091        -0.586908         1.787711
 H         4.781254         1.435294        -1.794150
 H         3.765000        -0.184406        -2.274341
 H         2.045105         2.379662         0.145444
