19
Iteration:  1232charge 0 multiplicity 1
 C        -0.132061        -0.202250        -0.267034
 C         1.374512         0.064830         0.025407
 C         2.182064        -0.511862         1.375661
 C         3.674364        -0.410834         0.989488
 C         3.250720         0.347706        -0.305446
 C         3.742782         1.408247        -1.320827
 O         2.365448         2.124837        -1.133171
 C         2.116133         1.355367         0.047581
 O         2.261479        -0.548841        -0.943185
 H        -0.645415        -1.152299         0.026764
 H        -0.658253         0.585438         0.371577
 H        -0.403940         0.043748        -1.333964
 H         1.884040         0.201793         2.147562
 H         1.861785        -1.539382         1.675804
 H         4.143497         0.458231         1.502332
 H         4.273195        -1.358650         1.013602
 H         4.465556         2.138992        -0.888228
 H         3.965676         0.987285        -2.285549
 H         2.124679         1.909528         0.948358
