19
Iteration:   755charge 0 multiplicity 1
 C        -0.119982        -0.160342        -0.099776
 C         1.370859         0.054054         0.113309
 C         2.117756        -0.633990         1.384299
 C         3.580510        -0.416550         1.060621
 C         3.297238         0.459101        -0.303921
 C         3.693344         1.558335        -1.359858
 O         2.438730         2.115446        -1.324976
 C         2.153408         1.390012        -0.021592
 O         2.273449        -0.629852        -0.942476
 H        -0.284651        -1.277674        -0.107428
 H        -0.820825         0.383892         0.620091
 H        -0.371094         0.249047        -1.114759
 H         1.742527        -0.345862         2.369494
 H         1.724275        -1.708070         1.278006
 H         4.145118        -0.026158         1.902996
 H         4.166004        -1.375211         0.837021
 H         4.404220         2.094322        -0.794034
 H         4.131340         1.247948        -2.282425
 H         2.195585         2.091185         0.782750
