19
Iteration:    13charge 0 multiplicity 1
 C        -0.036728        -0.180680        -0.184286
 C         1.378706        -0.018294        -0.066508
 C         2.117571        -0.710406         1.279548
 C         3.618355        -0.456054         0.911772
 C         3.273648         0.408823        -0.324287
 C         3.711987         1.490154        -1.351116
 O         2.373640         2.261041        -0.921608
 C         2.161948         1.266424         0.184777
 O         2.213183        -0.452476        -1.100634
 H        -0.393161        -0.135284         0.808565
 H        -0.535234         0.586731        -0.810145
 H        -0.213838        -1.197716        -0.605550
 H         1.985195         0.102226         2.069365
 H         1.861110        -1.624143         1.700190
 H         4.090563         0.119789         1.784718
 H         4.243437        -1.252193         0.627871
 H         4.607033         2.067034        -1.011387
 H         3.716891         1.195420        -2.367020
 H         2.083200         1.714967         1.253870
