19
Iteration:  1535charge 0 multiplicity 1
 C        -0.082453        -0.264802        -0.162417
 C         1.413730        -0.020150         0.109048
 C         2.019980        -0.475460         1.393696
 C         3.570899        -0.331519         1.025115
 C         3.283989         0.336180        -0.329093
 C         3.682346         1.378415        -1.476522
 O         2.473177         2.274573        -1.136223
 C         2.183609         1.347974        -0.006909
 O         2.292177        -0.610350        -0.930002
 H        -0.230254        -1.247583        -0.513588
 H        -0.775590        -0.154672         0.662549
 H        -0.347315         0.434140        -0.941492
 H         1.601235         0.286400         2.149219
 H         1.717710        -1.494453         1.771095
 H         4.015521         0.155049         1.799700
 H         4.064925        -1.250423         0.865018
 H         4.502800         2.092995        -1.250216
 H         3.596510         1.101862        -2.558226
 H         2.293517         1.910966         0.937015
