19
Iteration:  4401
 C        -0.178327        -0.087184        -0.150742
 C         1.324067         0.206241         0.102500
 C         1.908718         0.170625         1.655506
 C         3.476648         0.208662         1.327200
 C         3.337745         0.378978        -0.171882
 C         3.884411         1.011455        -1.427994
 O         2.582470         1.311293        -1.907465
 C         2.152474         1.361938        -0.486021
 O         2.313029        -0.788069        -0.437904
 H        -0.544281        -0.417781         0.815506
 H        -0.669747         0.835473        -0.617342
 H        -0.270311        -0.872740        -0.884264
 H         1.507794         0.875368         2.430522
 H         1.609316        -0.795752         2.017373
 H         3.900684         1.058597         1.856662
 H         4.154249        -0.636684         1.633473
 H         4.440482         1.822781        -1.153242
 H         4.346164         0.427732        -2.192889
 H         1.881290         2.395283        -0.076773
