19
Iteration:  4315
 C        -0.016211        -0.269485        -0.156750
 C         1.342182         0.286974         0.136522
 C         1.888034         0.239594         1.665887
 C         3.406091         0.224597         1.406924
 C         3.239033         0.392311        -0.141346
 C         3.886266         0.743921        -1.520256
 O         2.603208         1.430951        -1.864690
 C         2.159792         1.387578        -0.476367
 O         2.254938        -0.624820        -0.487918
 H         0.198099        -1.307120        -0.332470
 H        -0.821912        -0.188393         0.652229
 H        -0.427148         0.098027        -1.097971
 H         1.533736         1.063088         2.265761
 H         1.625897        -0.677467         2.036203
 H         3.777247         1.106513         1.964683
 H         3.934302        -0.762950         1.613428
 H         4.858090         1.452938        -1.649625
 H         4.042583        -0.150587        -2.171043
 H         2.234186         2.489661        -0.124260
