19
Iteration:  3140charge 0 multiplicity 1
 C        -0.151593        -0.125227        -0.108664
 C         1.366651         0.080004         0.054052
 C         2.030231        -0.345656         1.548884
 C         3.511305        -0.118695         1.244801
 C         3.289496         0.423793        -0.239129
 C         3.780335         1.204557        -1.438803
 O         2.554868         1.767738        -1.640142
 C         2.099924         1.388914        -0.148034
 O         2.328715        -0.590710        -0.732125
 H        -0.563411        -1.125626        -0.179294
 H        -0.609902         0.229771         0.867007
 H        -0.691343         0.477633        -0.886498
 H         1.638502         0.123401         2.376399
 H         1.624857        -1.411490         1.385692
 H         4.036300         0.699538         1.736166
 H         4.093190        -0.989282         1.310043
 H         4.467907         2.104392        -1.121677
 H         4.326376         0.643671        -2.305484
 H         1.976677         2.416149         0.304586
