19
Iteration:  2382charge 0 multiplicity 1
 C        -0.061709        -0.343091        -0.186698
 C         1.395789         0.088145         0.101354
 C         2.048225        -0.512995         1.412000
 C         3.593302        -0.346294         1.032308
 C         3.245277         0.406205        -0.272583
 C         3.661765         1.290931        -1.447812
 O         2.506687         2.118862        -1.253907
 C         2.155586         1.467710         0.024483
 O         2.266792        -0.483649        -0.826500
 H        -0.087360        -0.260360        -1.270818
 H        -0.497168        -1.311683         0.072068
 H        -0.658299         0.599976         0.081513
 H         1.675609         0.113684         2.331943
 H         1.638924        -1.543888         1.276663
 H         4.089925         0.366591         1.786780
 H         4.195266        -1.275658         0.603828
 H         4.670717         1.721647        -1.447916
 H         3.640073         0.724659        -2.401875
 H         2.045935         2.206826         0.801610
