19
Iteration:  3699
 C        -0.142294        -0.056696        -0.088172
 C         1.339937         0.189961         0.142270
 C         1.894977         0.075533         1.588009
 C         3.430530         0.191252         1.359563
 C         3.283527         0.318262        -0.185552
 C         3.870592         1.027633        -1.443326
 O         2.582182         1.477486        -1.879820
 C         2.152144         1.309202        -0.391636
 O         2.387427        -0.790159        -0.557372
 H        -0.236160        -0.666822        -0.987085
 H        -0.706237        -0.561050         0.736511
 H        -0.817908         0.718611        -0.370057
 H         1.459754         0.790632         2.223672
 H         1.638748        -0.974203         1.974948
 H         3.825240         1.068116         1.811715
 H         3.950279        -0.627455         1.763067
 H         4.419391         1.970259        -1.160722
 H         4.360485         0.441121        -2.312627
 H         2.195129         2.258605         0.027203
