19
Iteration:  1190
 C        -0.062532        -0.162004        -0.062638
 C         1.372660         0.010658         0.061167
 C         2.052970        -0.621530         1.295504
 C         3.551058        -0.413679         1.035320
 C         3.283090         0.379008        -0.331265
 C         3.799216         1.459306        -1.230573
 O         2.353765         2.123481        -1.351281
 C         2.139835         1.414428        -0.017235
 O         2.330066        -0.528157        -0.933596
 H        -0.308882        -1.161895         0.274739
 H        -0.502446         0.457110         0.684025
 H        -0.558803         0.043129        -1.009748
 H         1.957209        -0.336691         2.411571
 H         1.692930        -1.666152         1.190686
 H         3.936729         0.125043         1.889891
 H         4.086628        -1.262521         0.792866
 H         4.549675         2.236663        -0.757564
 H         4.020567         1.192781        -2.239807
 H         2.094542         2.161904         0.803359
