19
Iteration:  1488
 C        -0.173175        -0.266773        -0.107970
 C         1.387428         0.041082         0.202770
 C         2.094739        -0.687482         1.339754
 C         3.598082        -0.372422         0.941210
 C         3.255787         0.512321        -0.207958
 C         3.806736         1.405943        -1.285628
 O         2.466533         2.012516        -1.421759
 C         2.130141         1.427269         0.050495
 O         2.232687        -0.369001        -0.945502
 H        -0.209977        -1.345186        -0.472619
 H        -0.746685        -0.136165         0.860580
 H        -0.476721         0.496400        -0.860177
 H         1.688102        -0.210082         2.313688
 H         1.830378        -1.790976         1.318694
 H         4.113146         0.244910         1.699852
 H         4.245797        -1.288742         0.786850
 H         4.638701         2.049739        -0.982895
 H         4.012024         0.713098        -2.149238
 H         2.064716         2.365895         0.659588
