19
Iteration:  2399charge 0 multiplicity 1
 C        -0.116322        -0.214582        -0.202364
 C         1.321772         0.005293         0.104271
 C         2.074874        -0.478839         1.459165
 C         3.596569        -0.290267         1.056965
 C         3.272683         0.369987        -0.345367
 C         3.752321         1.294321        -1.388318
 O         2.482662         2.136731        -1.245181
 C         2.145495         1.408230        -0.018265
 O         2.247184        -0.541329        -0.938787
 H        -0.516631        -0.177609        -1.244524
 H        -0.112290        -1.353635        -0.076729
 H        -0.825466         0.225382         0.439319
 H         1.948117         0.155043         2.328896
 H         2.035756        -1.542225         1.801992
 H         4.147539         0.336043         1.779750
 H         4.074632        -1.211329         1.090015
 H         4.491213         2.092678        -1.173258
 H         3.821432         0.862350        -2.404230
 H         2.232823         2.068320         0.900303
