19
Iteration:    14charge 0 multiplicity 1
 C        -0.028966        -0.176832        -0.185457
 C         1.374534        -0.026197        -0.070540
 C         2.122037        -0.703431         1.285620
 C         3.617969        -0.455039         0.912971
 C         3.280851         0.407420        -0.328282
 C         3.710663         1.482234        -1.357237
 O         2.376004         2.269951        -0.908423
 C         2.158440         1.264192         0.183433
 O         2.212975        -0.460797        -1.113256
 H        -0.396543        -0.189578         0.795496
 H        -0.574081         0.593109        -0.786939
 H        -0.245121        -1.185681        -0.640928
 H         1.956408         0.145714         2.077124
 H         1.840342        -1.586063         1.732456
 H         4.098200         0.151298         1.792708
 H         4.244534        -1.252988         0.656758
 H         4.613357         2.080419        -1.009808
 H         3.666153         1.188209        -2.355602
 H         2.088061         1.713838         1.292195
