19
Iteration:  2083charge 0 multiplicity 1
 C        -0.136256        -0.224339        -0.160336
 C         1.317433         0.030792         0.080835
 C         2.084663        -0.420174         1.399962
 C         3.607189        -0.341579         0.959418
 C         3.296670         0.364932        -0.379592
 C         3.741882         1.389736        -1.361434
 O         2.431138         2.134869        -1.209308
 C         2.125782         1.406704        -0.031503
 O         2.322587        -0.633708        -0.865990
 H        -0.029255        -1.036748        -0.912916
 H        -0.686372        -0.387953         0.759756
 H        -0.774022         0.478553        -0.646467
 H         2.007404         0.395814         2.187268
 H         1.760092        -1.371042         1.906826
 H         4.144817         0.175961         1.900382
 H         3.825052        -1.451011         0.886811
 H         4.721766         1.922133        -0.984050
 H         4.001074         0.892716        -2.352108
 H         2.067015         1.998780         0.862565
