19
Iteration:  1549charge 0 multiplicity 1
 C        -0.091434        -0.204690        -0.216711
 C         1.349602        -0.063648        -0.010934
 C         2.082468        -0.435321         1.481485
 C         3.550354        -0.319918         1.023084
 C         3.276964         0.428753        -0.385907
 C         3.716420         1.428675        -1.466079
 O         2.435071         2.158557        -1.061707
 C         2.150262         1.337709         0.003395
 O         2.322329        -0.629931        -0.909077
 H        -0.487936        -1.205476        -0.355067
 H        -0.474672         0.211108         0.685091
 H        -0.523920         0.393178        -1.036257
 H         1.858410         0.091080         2.406425
 H         1.858088        -1.461382         1.604489
 H         4.412339         0.226436         1.510193
 H         3.868216        -1.331259         0.877347
 H         4.732643         1.853872        -1.310795
 H         3.756419         0.946609        -2.413380
 H         2.012147         1.868285         0.922618
