19
Iteration:  1819charge 0 multiplicity 1
 C        -0.002514        -0.297841        -0.207220
 C         1.376171         0.079794         0.153784
 C         2.074200        -0.571779         1.388512
 C         3.498488        -0.484470         1.059125
 C         3.335019         0.442471        -0.256889
 C         3.672764         1.442331        -1.519433
 O         2.429471         2.083309        -1.236608
 C         2.130171         1.426595        -0.011807
 O         2.291215        -0.415031        -0.843571
 H        -0.099611        -1.401800         0.007848
 H        -0.658665         0.292188         0.428922
 H        -0.018365         0.117649        -1.268000
 H         1.767371        -0.061444         2.249714
 H         1.829176        -1.566908         1.508534
 H         4.037202        -0.119197         1.954102
 H         3.891163        -1.543967         0.794436
 H         4.507218         2.189740        -1.452395
 H         3.629905         0.869143        -2.445501
 H         2.117338         2.202540         0.731506
