19
Iteration:  1343
 C        -0.159518        -0.214762        -0.076672
 C         1.375246         0.029751         0.044272
 C         2.087213        -0.485677         1.370345
 C         3.563129        -0.345109         0.945498
 C         3.275566         0.382546        -0.352616
 C         3.827890         1.435873        -1.231039
 O         2.399297         2.071133        -1.219937
 C         2.131082         1.330098        -0.022403
 O         2.316272        -0.543491        -0.988751
 H        -0.491780        -1.213480        -0.489382
 H        -0.468330        -0.008509         0.966935
 H        -0.557561         0.651302        -0.657186
 H         1.543683        -0.104920         2.238893
 H         1.823333        -1.508044         1.298358
 H         4.290178         0.212754         1.597402
 H         4.048108        -1.277255         0.725274
 H         4.542010         2.022309        -0.631450
 H         4.189888         1.375887        -2.204964
 H         1.970069         1.920866         0.855414
