19
Iteration:  2384charge 0 multiplicity 1
 C        -0.073625        -0.349665        -0.200885
 C         1.391899         0.079055         0.095493
 C         2.061485        -0.513020         1.421614
 C         3.596976        -0.342175         1.035335
 C         3.241800         0.398517        -0.250891
 C         3.649874         1.293960        -1.452987
 O         2.507147         2.128722        -1.257652
 C         2.170755         1.468593         0.018626
 O         2.262049        -0.488860        -0.836656
 H        -0.098613        -0.185353        -1.264298
 H        -0.496166        -1.280947         0.109270
 H        -0.659209         0.574609         0.162104
 H         1.724435         0.069597         2.243763
 H         1.654912        -1.478894         1.364580
 H         4.045436         0.358230         1.682805
 H         4.178537        -1.273462         0.694413
 H         4.697300         1.685690        -1.355145
 H         3.682656         0.781577        -2.411753
 H         2.041256         2.199828         0.789956
