19
Iteration:  4758charge 0 multiplicity 1
 C        -0.071443        -0.338258        -0.149731
 C         1.331059         0.293219         0.222135
 C         1.856791         0.168031         1.701992
 C         3.401969         0.135259         1.379774
 C         3.295371         0.414143        -0.155546
 C         3.908421         0.787653        -1.559308
 O         2.608320         1.477453        -1.952105
 C         2.223015         1.491223        -0.470976
 O         2.217905        -0.604934        -0.436575
 H        -0.515571        -1.027169         0.634114
 H        -0.822666         0.456442        -0.432259
 H         0.098420        -0.880641        -1.067329
 H         1.528767         0.880398         2.379948
 H         1.575196        -0.813215         1.948829
 H         3.919096         1.007290         1.792958
 H         3.985020        -0.781145         1.479056
 H         4.785284         1.449305        -1.441624
 H         4.187824        -0.057606        -2.194060
 H         2.243818         2.482349        -0.010316
