19
Iteration:  3378
 C        -0.051471        -0.165055        -0.212084
 C         1.360459         0.094749         0.076065
 C         1.945692        -0.038409         1.573955
 C         3.513849         0.091649         1.258749
 C         3.252020         0.327307        -0.237649
 C         3.836443         0.966269        -1.507616
 O         2.494508         1.787514        -1.607248
 C         2.112680         1.384462        -0.229768
 O         2.349059        -0.743587        -0.604361
 H        -0.232059        -1.248502        -0.233042
 H        -0.716362         0.341208         0.526551
 H        -0.446264         0.260998        -1.216279
 H         1.648829         0.758109         2.260055
 H         1.489094        -0.975917         2.043877
 H         3.825256         1.027484         1.786628
 H         4.110015        -0.816539         1.408432
 H         4.734866         1.601658        -1.435742
 H         4.028407         0.328711        -2.421411
 H         1.976315         2.177199         0.499086
