19
Iteration:  1195
 C        -0.067921        -0.159829        -0.062166
 C         1.368105         0.014367         0.115601
 C         2.068603        -0.605616         1.333273
 C         3.526145        -0.408581         1.012158
 C         3.254792         0.328262        -0.314149
 C         3.840398         1.486435        -1.228762
 O         2.338002         2.131735        -1.315741
 C         2.123953         1.385731        -0.030856
 O         2.336454        -0.550977        -0.999794
 H        -0.319373        -1.192295         0.258481
 H        -0.555990         0.613004         0.614279
 H        -0.382797         0.070886        -1.093515
 H         1.774512        -0.152931         2.296105
 H         1.659682        -1.613640         1.339335
 H         4.018099         0.267998         1.756715
 H         4.335486        -1.219682         0.734983
 H         4.405761         2.286066        -0.880578
 H         4.257212         1.167810        -2.239504
 H         2.189154         2.096248         0.848820
