19
Iteration:  2958charge 0 multiplicity 1
 C        -0.095199        -0.158030        -0.262081
 C         1.350648         0.028198         0.137623
 C         2.025425        -0.342216         1.454842
 C         3.555865        -0.162454         1.134493
 C         3.283192         0.337855        -0.301515
 C         3.726265         1.279141        -1.485253
 O         2.422475         1.933865        -1.366090
 C         2.215908         1.391739        -0.054044
 O         2.297283        -0.656626        -0.771704
 H        -0.250677         0.170286        -1.326420
 H        -0.263883        -1.202304        -0.127425
 H        -0.598354         0.682562         0.230664
 H         1.874960         0.518804         2.217672
 H         1.702123        -1.311540         1.982067
 H         3.897353         0.593608         1.928011
 H         4.143161        -1.139770         1.096650
 H         4.543131         2.082153        -1.138004
 H         3.958699         0.679709        -2.430221
 H         2.275416         2.094237         0.776303
