19
Iteration:  4120charge 0 multiplicity 1
 C        -0.121494        -0.110048        -0.049680
 C         1.319568         0.200688         0.094388
 C         1.913814         0.023324         1.552734
 C         3.356364         0.317205         1.335460
 C         3.263511         0.414007        -0.218495
 C         3.989075         0.881283        -1.424466
 O         2.603860         1.342341        -1.934445
 C         2.111322         1.439124        -0.458154
 O         2.344644        -0.753866        -0.397456
 H        -0.596653        -0.527721         0.843360
 H        -0.676840         0.918702        -0.274898
 H        -0.392907        -0.724484        -0.953325
 H         1.496783         0.833904         2.340431
 H         1.773665        -1.023050         1.936818
 H         3.747386         1.261872         1.824867
 H         4.152072        -0.466002         1.601150
 H         4.514715         1.787365        -1.329575
 H         4.439224         0.106531        -2.015750
 H         1.933538         2.503832        -0.157873
