19
Iteration:  2490charge 0 multiplicity 1
 C        -0.044184        -0.183720        -0.189341
 C         1.391285         0.109342         0.126531
 C         2.066326        -0.492114         1.435192
 C         3.594207        -0.295094         1.051389
 C         3.300845         0.355126        -0.248047
 C         3.705318         1.267007        -1.399946
 O         2.395246         2.013864        -1.309360
 C         2.122384         1.449376        -0.047225
 O         2.277371        -0.485788        -0.914571
 H        -0.640002         0.584261        -0.626476
 H        -0.001189        -0.965937        -0.925884
 H        -0.594658        -0.529168         0.744110
 H         1.592733        -0.236050         2.468361
 H         1.922228        -1.611760         1.307825
 H         4.064852         0.296793         1.871345
 H         4.263273        -1.175593         1.088931
 H         4.416299         2.014358        -1.144077
 H         3.857655         0.548686        -2.186937
 H         2.266323         2.218454         0.734308
