19
Iteration:  2627
 C        -0.137281        -0.159053        -0.127815
 C         1.326867        -0.049931         0.017596
 C         2.082260        -0.501830         1.412711
 C         3.586379        -0.247348         1.053056
 C         3.320231         0.323715        -0.358244
 C         3.806617         1.397359        -1.359922
 O         2.398944         2.056507        -1.230992
 C         2.109836         1.352985        -0.005466
 O         2.331189        -0.541581        -0.927376
 H        -0.393832        -0.434484        -1.171089
 H        -0.676207        -0.793618         0.653937
 H        -0.450061         0.855221        -0.042656
 H         1.692887        -0.004069         2.356249
 H         1.945301        -1.589179         1.722719
 H         4.252645         0.487236         1.631249
 H         4.173849        -1.198819         1.020541
 H         4.576241         2.036055        -1.167747
 H         3.681938         1.052873        -2.387605
 H         1.923574         2.062012         0.826732
