19
Iteration:  4444charge 0 multiplicity 1
 C        -0.042860        -0.195754        -0.073839
 C         1.392607         0.214467         0.073281
 C         1.819322         0.172153         1.587051
 C         3.406113         0.275797         1.311637
 C         3.231386         0.388890        -0.139202
 C         3.856311         0.722503        -1.500275
 O         2.595576         1.484301        -1.807906
 C         2.129936         1.470134        -0.419946
 O         2.391727        -0.728969        -0.525103
 H        -0.432596        -0.593295         0.882253
 H        -0.846338         0.497674        -0.506436
 H        -0.119727        -1.031292        -0.744976
 H         1.475950         1.071837         2.235867
 H         1.540136        -0.765234         2.102742
 H         4.017765         1.059741         1.653748
 H         3.858356        -0.663954         1.698065
 H         4.649215         1.509281        -1.403224
 H         4.147972        -0.082970        -2.174372
 H         1.953226         2.419449         0.006656
