19
Iteration:  4910
 C        -0.087692        -0.198459        -0.144521
 C         1.310536         0.146370         0.059667
 C         1.922864         0.359980         1.574028
 C         3.481112         0.234581         1.308751
 C         3.288970         0.275947        -0.172995
 C         3.888936         0.842254        -1.513609
 O         2.513574         1.521194        -1.806102
 C         2.164590         1.338454        -0.364042
 O         2.343314        -0.774439        -0.467188
 H        -0.286451        -1.156607         0.298677
 H        -0.789496         0.542377         0.242016
 H        -0.315419        -0.284038        -1.176320
 H         1.342562         1.243586         2.005622
 H         1.442902        -0.472262         2.167616
 H         4.062251         1.015378         1.746592
 H         3.792563        -0.660556         1.846061
 H         4.734514         1.569657        -1.146067
 H         4.168889         0.138972        -2.316144
 H         2.058575         2.205515         0.223807
