19
Iteration:  1231
 C        -0.136928        -0.202517        -0.271274
 C         1.376333         0.056618         0.024338
 C         2.187813        -0.499047         1.374787
 C         3.664825        -0.404272         0.988945
 C         3.254832         0.331762        -0.305313
 C         3.748988         1.417213        -1.314899
 O         2.367548         2.120623        -1.135743
 C         2.113278         1.347609         0.054564
 O         2.257021        -0.542633        -0.942313
 H        -0.657629        -1.152280         0.047599
 H        -0.628100         0.605353         0.402194
 H        -0.430011         0.040351        -1.339495
 H         1.868281         0.191745         2.115652
 H         1.868940        -1.546917         1.663901
 H         4.154631         0.472351         1.507174
 H         4.315109        -1.373350         0.984429
 H         4.441727         2.137193        -0.906718
 H         3.984291         0.998949        -2.303466
 H         2.123573         1.915398         0.958673
