19
Iteration:  2738charge 0 multiplicity 1
 C        -0.232028        -0.154676        -0.038639
 C         1.419489         0.001420         0.007047
 C         2.075690        -0.501633         1.402554
 C         3.549154        -0.227922         1.085326
 C         3.309139         0.371827        -0.262839
 C         3.818137         1.411492        -1.314548
 O         2.441639         2.078138        -1.358475
 C         2.182790         1.306923        -0.102030
 O         2.235737        -0.642860        -0.945941
 H        -0.599861         0.818684        -0.068869
 H        -0.473140        -0.817882        -0.861180
 H        -0.611460        -0.663109         0.869856
 H         1.832350        -0.067163         2.395634
 H         1.950183        -1.659727         1.389053
 H         4.039810         0.598344         1.735534
 H         4.179817        -1.082350         1.050955
 H         4.407035         2.186483        -0.833348
 H         4.371831         1.219647        -2.248593
 H         2.139968         2.113818         0.604261
