19
Iteration:  4544charge 0 multiplicity 1
 C        -0.069582        -0.114903        -0.056612
 C         1.391548         0.242566         0.150613
 C         1.829073         0.120986         1.598135
 C         3.385141         0.229722         1.325246
 C         3.323633         0.447427        -0.152982
 C         3.867438         0.871121        -1.478939
 O         2.549751         1.240260        -1.946681
 C         2.193292         1.440157        -0.469845
 O         2.355318        -0.668842        -0.437227
 H        -0.112382        -1.153409        -0.280511
 H        -0.868795         0.149477         0.717330
 H        -0.482311         0.430147        -0.905941
 H         1.138777         0.818763         2.243363
 H         1.696519        -0.852392         1.996888
 H         3.788611         1.068437         1.895941
 H         3.957999        -0.661603         1.611162
 H         4.537346         1.849127        -1.440497
 H         4.359748         0.010956        -2.015872
 H         2.011757         2.430296        -0.180038
