19
Iteration:   795
 C        -0.046957        -0.072357        -0.116803
 C         1.443583        -0.050129         0.007107
 C         2.145935        -0.545014         1.334024
 C         3.615945        -0.262000         1.056296
 C         3.192251         0.334485        -0.279733
 C         3.710710         1.398214        -1.263368
 O         2.426072         2.057641        -1.185712
 C         2.074406         1.314205         0.086487
 O         2.252452        -0.532132        -1.117315
 H        -0.409442        -0.925765         0.474268
 H        -0.709691         0.773730         0.140432
 H        -0.327374        -0.395374        -1.135305
 H         1.781569         0.020023         2.152261
 H         2.051847        -1.651447         1.512354
 H         4.127067         0.483194         1.663166
 H         4.208553        -1.185792         0.963636
 H         4.522572         2.200053        -0.972558
 H         3.756083         1.065393        -2.369571
 H         2.056248         1.903267         1.020869
