19
Iteration:  2685charge 0 multiplicity 1
 C        -0.092901        -0.275093        -0.174553
 C         1.359267         0.115929         0.116669
 C         2.073129        -0.541586         1.429412
 C         3.622946        -0.372719         1.047446
 C         3.247564         0.449874        -0.212350
 C         3.740882         1.362170        -1.399422
 O         2.465309         2.015090        -1.359492
 C         2.101784         1.394109         0.043491
 O         2.258678        -0.454548        -0.886033
 H        -0.214061         0.292764        -1.118307
 H        -0.069371        -1.281051        -0.557259
 H        -0.830842         0.152858         0.585473
 H         1.957176         0.154359         2.228778
 H         1.733035        -1.592040         1.618749
 H         4.236407         0.080598         1.835078
 H         4.086008        -1.245096         0.679521
 H         4.639743         1.912733        -1.450466
 H         3.743545         0.804315        -2.338627
 H         2.045579         2.269672         0.735909
