19
Iteration:   825charge 0 multiplicity 1
 C        -0.137060        -0.240561        -0.168587
 C         1.364889         0.056126         0.144106
 C         2.002187        -0.619031         1.359897
 C         3.547500        -0.395001         0.943808
 C         3.276682         0.475942        -0.267638
 C         3.702434         1.461563        -1.483216
 O         2.459604         2.090339        -1.237090
 C         2.202898         1.413949         0.081069
 O         2.368522        -0.499292        -0.837555
 H        -0.379854        -1.074897         0.443499
 H        -0.852755         0.517569        -0.078279
 H        -0.294254        -0.637446        -1.162253
 H         1.717282        -0.404693         2.433967
 H         1.748353        -1.651244         1.272405
 H         4.234912        -0.076843         1.769342
 H         4.039783        -1.259901         0.574427
 H         4.507528         2.177566        -1.381021
 H         3.753854         1.129351        -2.529961
 H         2.309198         2.103471         1.039094
