19
Iteration:   191
 C         0.024289        -0.244782        -0.184622
 C         1.403956         0.002522         0.108482
 C         2.060017        -0.766181         1.288786
 C         3.540940        -0.474730         0.951771
 C         3.291806         0.524777        -0.240331
 C         3.660588         1.476160        -1.398589
 O         2.414872         2.207443        -1.190248
 C         2.153978         1.448740         0.134035
 O         2.262375        -0.435396        -0.903679
 H        -0.461423         0.406182        -0.968167
 H        -0.132507        -1.274989        -0.511290
 H        -0.688501        -0.045230         0.615914
 H         1.683286        -0.360361         2.234099
 H         1.828249        -1.879291         1.189188
 H         4.221474        -0.092288         1.714183
 H         3.963214        -1.465258         0.470583
 H         4.689977         1.902440        -1.383076
 H         3.710572         0.947404        -2.367743
 H         2.266917         2.033397         1.096674
