19
Iteration:  3624
 C        -0.086445        -0.215484        -0.161151
 C         1.317832         0.161564         0.117557
 C         1.894622         0.137917         1.560866
 C         3.450664         0.200215         1.312474
 C         3.245232         0.276791        -0.275297
 C         3.813482         0.933979        -1.515498
 O         2.602343         1.676257        -1.718890
 C         2.208578         1.348881        -0.254813
 O         2.340384        -0.777196        -0.535494
 H        -0.519522        -0.967931         0.531866
 H        -0.860082         0.530328        -0.405085
 H        -0.049083        -0.842759        -1.021861
 H         1.705951         1.030343         2.060337
 H         1.467807        -0.664520         2.152488
 H         3.894218         1.057450         1.777083
 H         3.933519        -0.696070         1.606281
 H         4.777100         1.513860        -1.426821
 H         3.821641         0.264679        -2.352653
 H         2.170486         2.349165         0.230927
