19
Iteration:  4654
 C        -0.076176        -0.202876        -0.144612
 C         1.338016         0.219981         0.200942
 C         1.896022         0.202776         1.684299
 C         3.408968         0.225365         1.286577
 C         3.297281         0.484094        -0.147176
 C         3.945163         0.819231        -1.505278
 O         2.625743         1.303293        -1.886154
 C         2.088179         1.390160        -0.392844
 O         2.246331        -0.649649        -0.554299
 H        -0.308698        -1.228536        -0.155435
 H        -0.629794         0.345709         0.625710
 H        -0.313987         0.289414        -1.101033
 H         1.425036         0.951339         2.410681
 H         1.822056        -0.712181         2.275734
 H         3.917707         0.972865         1.856744
 H         3.939794        -0.649800         1.622308
 H         4.698023         1.709869        -1.613778
 H         4.302101        -0.130654        -2.026319
 H         1.973903         2.408482        -0.145161
