19
Iteration:  1671
 C        -0.104846        -0.251489        -0.250617
 C         1.325916         0.045775         0.018407
 C         2.101270        -0.459581         1.462416
 C         3.611666        -0.247445         0.981288
 C         3.298433         0.325927        -0.371064
 C         3.653874         1.375327        -1.368328
 O         2.451844         2.153726        -1.183432
 C         2.213098         1.365666         0.038639
 O         2.200792        -0.589266        -0.872886
 H        -0.142315        -1.318171        -0.578079
 H        -0.609464        -0.146173         0.712368
 H        -0.443246         0.385096        -1.043103
 H         1.773617        -0.023852         2.495192
 H         1.990312        -1.560844         1.546611
 H         4.392681         0.281983         1.659781
 H         4.162410        -1.302421         0.845778
 H         4.576556         1.981915        -0.969285
 H         3.797682         1.209427        -2.446258
 H         2.404596         1.723805         1.043396
