19
Iteration:  1362
 C        -0.067027        -0.200315        -0.110734
 C         1.404767         0.026758         0.058368
 C         2.013331        -0.587007         1.316829
 C         3.591173        -0.426399         0.975448
 C         3.281755         0.391154        -0.241673
 C         3.725723         1.451986        -1.295244
 O         2.452801         2.042124        -1.279869
 C         2.122462         1.388287         0.083292
 O         2.258127        -0.418827        -0.992969
 H        -0.053677        -1.299217        -0.315078
 H        -0.724033        -0.020845         0.763527
 H        -0.585319         0.217414        -1.013602
 H         1.944659         0.088572         2.121327
 H         1.756376        -1.568215         1.714179
 H         3.993171         0.199262         1.860226
 H         4.338499        -1.255398         0.802391
 H         4.527541         2.157168        -1.170431
 H         3.901937         0.998493        -2.249464
 H         2.202848         2.086979         0.906800
