19
Iteration:  1946
 C        -0.079481        -0.265526        -0.222042
 C         1.405216         0.039119         0.198491
 C         2.028691        -0.548731         1.445689
 C         3.560296        -0.400248         0.971554
 C         3.260957         0.413751        -0.309269
 C         3.734072         1.422816        -1.406535
 O         2.452061         2.070203        -1.298177
 C         2.180713         1.438325         0.021696
 O         2.258059        -0.448225        -0.846187
 H        -0.112113        -1.343916        -0.191505
 H        -0.794004         0.350449         0.360921
 H        -0.144906        -0.094475        -1.323406
 H         1.790375        -0.037515         2.455342
 H         1.787859        -1.678138         1.547486
 H         4.268477         0.051497         1.636051
 H         3.910696        -1.429231         0.709394
 H         4.588920         2.039776        -1.182324
 H         3.958927         0.900170        -2.363296
 H         1.842766         2.210652         0.765062
