19
Iteration:  3293
 C        -0.169429        -0.085626        -0.094632
 C         1.305994         0.052528         0.112814
 C         2.000539        -0.144248         1.546495
 C         3.520896         0.013039         1.220767
 C         3.265161         0.326443        -0.219786
 C         3.840271         1.173755        -1.336190
 O         2.549647         1.755889        -1.692245
 C         2.132044         1.280692        -0.361161
 O         2.343174        -0.712340        -0.680347
 H        -0.655263         0.376106         0.728637
 H        -0.568523         0.407170        -0.965678
 H        -0.379876        -1.181565        -0.082086
 H         1.832496         0.692357         2.210042
 H         1.791550        -1.266255         1.987978
 H         3.960470         0.788412         1.838074
 H         4.046034        -0.868402         1.429246
 H         4.331837         2.110343        -1.085497
 H         4.229947         0.692172        -2.303834
 H         1.931732         2.239007         0.269042
