19
Iteration:  4958
 C        -0.140039        -0.151896        -0.037630
 C         1.312373         0.192955         0.155204
 C         1.898391         0.031658         1.584214
 C         3.397850         0.324212         1.356267
 C         3.293420         0.409043        -0.146350
 C         3.876023         0.850542        -1.488210
 O         2.628623         1.453734        -1.953853
 C         2.169443         1.391216        -0.486819
 O         2.349509        -0.723568        -0.457725
 H        -0.506642        -0.561873         0.920825
 H        -0.697742         0.791793        -0.221311
 H        -0.413842        -0.861134        -0.870647
 H         1.338953         0.598683         2.281188
 H         1.658201        -0.980281         1.793440
 H         3.886111         1.062360         2.025657
 H         3.976887        -0.625482         1.457173
 H         4.462176         1.856869        -1.291026
 H         4.377094         0.156783        -2.219353
 H         2.133819         2.388501        -0.045849
