19
Iteration:  3515
 C        -0.157858        -0.182916        -0.212238
 C         1.353733         0.064796         0.100124
 C         1.968001         0.079488         1.587760
 C         3.494893         0.145088         1.243745
 C         3.184842         0.354650        -0.231468
 C         3.815291         0.972236        -1.529489
 O         2.629837         1.737063        -1.657022
 C         2.092527         1.325765        -0.314455
 O         2.346582        -0.767517        -0.516042
 H        -0.589956         0.659076        -0.783323
 H        -0.159649        -1.117737        -0.769687
 H        -0.571995        -0.354170         0.721358
 H         1.553974         0.925007         2.246937
 H         1.648581        -0.878215         2.119539
 H         4.051811         0.920541         1.730616
 H         3.975533        -0.817586         1.458306
 H         4.677195         1.595946        -1.284645
 H         4.082775         0.310732        -2.285168
 H         2.241640         2.222074         0.377934
