19
Iteration:   381charge 0 multiplicity 1
 C        -0.148850        -0.236315        -0.006573
 C         1.362135         0.107475         0.111393
 C         2.046721        -0.569142         1.330163
 C         3.544630        -0.407418         1.034084
 C         3.280645         0.478235        -0.263013
 C         3.811281         1.458843        -1.272585
 O         2.407085         1.967001        -1.314408
 C         2.150611         1.410606        -0.016371
 O         2.379467        -0.495946        -1.045329
 H        -0.315221        -0.972298        -0.714615
 H        -0.764326        -0.494703         0.811387
 H        -0.691879         0.536228        -0.519236
 H         1.627476        -0.260043         2.300605
 H         1.783190        -1.588484         1.251095
 H         4.103395         0.181978         1.877616
 H         4.113514        -1.233989         0.676935
 H         4.533591         2.294745        -0.975666
 H         4.069462         1.021765        -2.293227
 H         1.940418         2.178360         0.825605
