19
Iteration:  4020
 C        -0.093801        -0.180893        -0.220213
 C         1.281903         0.146243         0.172948
 C         1.860023         0.272315         1.596813
 C         3.451837         0.367184         1.351153
 C         3.331482         0.369025        -0.183636
 C         3.907529         0.735595        -1.430246
 O         2.552667         1.426901        -1.870055
 C         2.164946         1.315364        -0.449740
 O         2.354244        -0.686623        -0.450388
 H        -0.125761        -1.279552        -0.491880
 H        -0.745383        -0.221211         0.688395
 H        -0.586409         0.495294        -0.967504
 H         1.438300         1.215644         2.214720
 H         1.584318        -0.600932         2.156686
 H         4.019151         1.199939         1.696410
 H         3.859502        -0.594442         1.742881
 H         4.623968         1.520721        -1.472863
 H         4.035601        -0.087675        -2.042161
 H         2.092842         2.290755         0.045574
