19
Iteration:  2404
 C        -0.135413        -0.215904        -0.174361
 C         1.345580         0.027641         0.096320
 C         2.072207        -0.459303         1.482564
 C         3.592749        -0.254722         1.061606
 C         3.267323         0.344552        -0.383034
 C         3.798571         1.348351        -1.361400
 O         2.461486         2.103199        -1.233674
 C         2.133484         1.345966        -0.019206
 O         2.243203        -0.555913        -0.962424
 H        -0.485158         0.015959        -1.180789
 H        -0.112159        -1.305380        -0.214568
 H        -0.895525         0.210436         0.568727
 H         1.829496         0.297836         2.356533
 H         1.985478        -1.542712         1.728485
 H         4.103595         0.441167         1.807478
 H         4.116774        -1.305940         0.867145
 H         4.619100         2.053373        -1.240568
 H         3.972003         0.876968        -2.343718
 H         2.239816         1.971389         0.851561
