19
Iteration:  2613
 C        -0.145153        -0.123338        -0.076399
 C         1.436122         0.012590         0.089178
 C         2.091289        -0.574999         1.352461
 C         3.594942        -0.239011         1.030451
 C         3.209911         0.459991        -0.233773
 C         3.699571         1.346572        -1.322711
 O         2.447154         2.037482        -1.337219
 C         2.099467         1.337270        -0.015120
 O         2.349676        -0.565424        -0.976677
 H        -0.466601        -0.590543        -1.027267
 H        -0.553214        -0.802990         0.659082
 H        -0.586775         0.836009         0.026214
 H         1.707651        -0.025057         2.244429
 H         1.839041        -1.595582         1.276308
 H         4.037264         0.399148         1.771968
 H         4.219647        -1.186587         0.827557
 H         4.446223         2.002126        -0.848185
 H         4.168349         0.915683        -2.159269
 H         2.152061         1.971989         0.850321
