19
Iteration:  3513charge 0 multiplicity 1
 C        -0.135497        -0.188584        -0.218316
 C         1.335032         0.067367         0.106532
 C         1.968729         0.092821         1.588019
 C         3.495979         0.141757         1.227023
 C         3.193929         0.352487        -0.222495
 C         3.798910         0.986588        -1.525199
 O         2.640579         1.744230        -1.646015
 C         2.105094         1.332768        -0.325924
 O         2.337482        -0.790330        -0.515902
 H        -0.629509         0.625102        -0.813797
 H        -0.180973        -1.143304        -0.780749
 H        -0.596191        -0.293412         0.760706
 H         1.633941         0.893565         2.196203
 H         1.604150        -0.891862         2.131138
 H         4.025395         0.899588         1.732461
 H         4.016889        -0.755506         1.509411
 H         4.638301         1.612600        -1.264923
 H         4.049651         0.239976        -2.333079
 H         2.194134         2.216319         0.388425
