19
Iteration:    30charge 0 multiplicity 1
 C        -0.161123        -0.240904        -0.204799
 C         1.439775        -0.078635         0.026155
 C         2.094695        -0.565233         1.340152
 C         3.636941        -0.419801         0.899466
 C         3.270442         0.319757        -0.388005
 C         3.577842         1.518482        -1.292177
 O         2.490677         2.281166        -0.830722
 C         2.162430         1.299340         0.084507
 O         2.296983        -0.480561        -1.144597
 H        -0.695187        -0.530152         0.776164
 H        -0.415794         0.776232        -0.484781
 H        -0.333201        -0.949441        -1.009055
 H         1.777355        -0.029914         2.208114
 H         1.892257        -1.721846         1.376723
 H         4.250174         0.223796         1.471055
 H         4.092610        -1.473551         0.856637
 H         4.515102         2.047663        -1.306772
 H         3.479379         1.176420        -2.397311
 H         2.131187         1.790271         1.031375
