19
Iteration:  2361charge 0 multiplicity 1
 C        -0.075185        -0.253335        -0.225034
 C         1.358176         0.132292         0.135928
 C         2.067311        -0.580574         1.418490
 C         3.555673        -0.363075         1.035022
 C         3.306731         0.476443        -0.149728
 C         3.677116         1.293907        -1.508500
 O         2.416444         2.064282        -1.274324
 C         2.198751         1.424650         0.014096
 O         2.311094        -0.465496        -0.887394
 H        -0.056979        -0.639389        -1.212418
 H        -0.301352        -0.917534         0.585393
 H        -0.825531         0.603032        -0.064467
 H         1.756944        -0.067379         2.340906
 H         1.797740        -1.617031         1.333453
 H         4.111163         0.291074         1.711848
 H         3.845174        -1.463479         0.791467
 H         4.619838         1.846604        -1.366305
 H         3.845721         0.765810        -2.449253
 H         2.050321         2.168653         0.772016
