19
Iteration:  3831
 C        -0.107013        -0.052439        -0.096816
 C         1.357896         0.111012         0.091865
 C         1.829260         0.200211         1.560954
 C         3.421586         0.285241         1.353951
 C         3.238455         0.309394        -0.215450
 C         3.970450         0.904749        -1.413271
 O         2.572811         1.463278        -1.870329
 C         2.118258         1.237051        -0.432056
 O         2.386228        -0.787932        -0.495209
 H        -0.557784         0.523748         0.796789
 H        -0.576793         0.522436        -0.929931
 H        -0.429773        -1.093323        -0.069646
 H         1.515489         1.071801         2.152052
 H         1.578016        -0.815716         2.129640
 H         3.732183         1.272860         1.644944
 H         3.991850        -0.474273         1.765255
 H         4.582575         1.752247        -1.143821
 H         4.427023         0.357959        -2.223290
 H         1.999919         2.204341         0.019928
