19
Iteration:  2016charge 0 multiplicity 1
 C        -0.130741        -0.140895        -0.076844
 C         1.419118         0.062679         0.096551
 C         2.080480        -0.648934         1.300297
 C         3.517507        -0.289061         1.055494
 C         3.360984         0.435082        -0.260028
 C         3.731457         1.352213        -1.320257
 O         2.409008         2.073509        -1.342780
 C         2.099768         1.418280        -0.004032
 O         2.308735        -0.578724        -0.927699
 H        -0.373266        -1.181038         0.046217
 H        -0.558831         0.543867         0.630673
 H        -0.452952         0.105465        -1.069827
 H         1.656260        -0.255839         2.253872
 H         2.041971        -1.722777         1.330723
 H         4.021775         0.373589         1.880040
 H         4.176150        -1.236235         0.973707
 H         4.588883         2.081195        -1.103216
 H         3.916032         1.029876        -2.353144
 H         2.101662         2.179364         0.735051
