19
Iteration:  2514
 C        -0.084485        -0.226244        -0.240204
 C         1.337890        -0.019834         0.117398
 C         2.010690        -0.421573         1.428321
 C         3.588503        -0.257025         1.041461
 C         3.251405         0.347478        -0.296083
 C         3.740357         1.351513        -1.558056
 O         2.456938         2.145022        -1.202100
 C         2.184121         1.360096         0.029843
 O         2.277393        -0.620881        -0.860827
 H        -0.481083         0.529475        -0.907496
 H        -0.155172        -1.126710        -0.768766
 H        -0.704554        -0.227668         0.688063
 H         1.958071         0.280150         2.374058
 H         1.841023        -1.409970         1.806469
 H         3.917041         0.386494         1.822487
 H         4.325206        -1.140075         1.107491
 H         4.552894         1.929764        -1.265460
 H         3.814949         0.954436        -2.538296
 H         2.382893         1.930431         0.910477
