19
Iteration:  3269charge 0 multiplicity 1
 C        -0.064852        -0.051240        -0.120615
 C         1.368536         0.036772         0.061633
 C         1.924063        -0.187195         1.531532
 C         3.471787         0.031893         1.187827
 C         3.271203         0.386166        -0.207028
 C         3.872985         1.102107        -1.436533
 O         2.445757         1.694720        -1.588063
 C         2.148175         1.348239        -0.257045
 O         2.352306        -0.694244        -0.677202
 H        -0.387342         0.937557         0.053158
 H        -0.280967        -0.278157        -1.176110
 H        -0.499076        -0.797254         0.537802
 H         1.527229         0.412019         2.389638
 H         1.937470        -1.306748         1.766140
 H         3.762815         0.881915         1.807659
 H         4.131298        -0.784905         1.400639
 H         4.355586         1.985049        -1.172515
 H         4.222234         0.775962        -2.395145
 H         2.106308         2.249926         0.404366
