19
Iteration:  1007charge 0 multiplicity 1
 C        -0.163659        -0.161304        -0.128772
 C         1.302883        -0.008147         0.078292
 C         2.084759        -0.535863         1.341042
 C         3.643423        -0.303775         0.951256
 C         3.292211         0.388699        -0.349111
 C         3.721708         1.393761        -1.247681
 O         2.420190         2.111596        -1.215337
 C         2.112718         1.246819         0.103129
 O         2.366947        -0.501395        -1.057004
 H        -0.387415        -1.205481         0.234871
 H        -0.584946         0.618492         0.508034
 H        -0.481345         0.038788        -1.184835
 H         1.746871         0.203785         2.081962
 H         1.977876        -1.477862         1.670188
 H         4.240203         0.321737         1.685525
 H         3.979764        -1.323622         1.052922
 H         4.666395         1.919606        -0.855043
 H         3.800103         1.046293        -2.269106
 H         2.065924         1.959589         0.941841
