19
Iteration:  3719
 C        -0.105052        -0.087311        -0.140585
 C         1.387912         0.071893         0.081477
 C         1.859186         0.102854         1.581156
 C         3.436904         0.258433         1.270129
 C         3.271052         0.317421        -0.212110
 C         3.964721         0.982959        -1.452385
 O         2.534983         1.538371        -1.788319
 C         2.106689         1.329727        -0.452258
 O         2.340738        -0.799057        -0.450298
 H        -0.382327        -0.018702        -1.181778
 H        -0.629238        -0.892251         0.478712
 H        -0.563239         0.803624         0.362303
 H         1.473718         0.950170         2.193781
 H         1.635162        -0.946959         2.145345
 H         3.847412         1.184659         1.671222
 H         4.023828        -0.625849         1.573225
 H         4.638376         1.689379        -1.089344
 H         4.390537         0.174184        -2.172451
 H         2.048546         2.217750         0.216697
