19
Iteration:   388charge 0 multiplicity 1
 C        -0.140620        -0.237684        -0.037628
 C         1.331906         0.139569         0.146966
 C         2.035203        -0.612437         1.272377
 C         3.544805        -0.426831         1.013096
 C         3.292889         0.458123        -0.240956
 C         3.812313         1.462592        -1.310348
 O         2.414967         1.984805        -1.327693
 C         2.130556         1.461845        -0.034686
 O         2.384873        -0.489559        -0.948398
 H        -0.173188        -1.094779        -0.778909
 H        -0.591251        -0.641709         0.930072
 H        -0.775551         0.583201        -0.408034
 H         1.691808        -0.281656         2.262827
 H         1.717480        -1.665491         1.164758
 H         4.105818         0.055263         1.742339
 H         4.175308        -1.315243         0.891537
 H         4.427623         2.304515        -0.965516
 H         4.053567         1.045040        -2.283404
 H         2.035160         2.255934         0.647317
