19
Iteration:  1884
 C        -0.159544        -0.114336        -0.060976
 C         1.350800         0.018923         0.053127
 C         2.052475        -0.638460         1.437126
 C         3.574247        -0.275407         1.082547
 C         3.288131         0.364863        -0.379443
 C         3.761072         1.460169        -1.266891
 O         2.418451         2.159049        -1.334404
 C         2.209284         1.292998        -0.119373
 O         2.307009        -0.610872        -0.965780
 H        -0.452642        -1.043808        -0.554716
 H        -0.664061        -0.359028         0.835173
 H        -0.711718         0.674862        -0.608673
 H         1.703129        -0.111935         2.308754
 H         1.916278        -1.658472         1.624085
 H         3.978191         0.511812         1.782513
 H         4.369339        -1.130173         1.201000
 H         4.517214         2.115774        -0.718280
 H         4.130719         1.073193        -2.229882
 H         2.233840         1.958361         0.692631
