19
Iteration:  2198
 C        -0.092549        -0.077699        -0.076485
 C         1.381686        -0.016420        -0.027876
 C         2.098450        -0.454243         1.424253
 C         3.614691        -0.292251         1.025762
 C         3.316094         0.350291        -0.374877
 C         3.741566         1.457320        -1.286915
 O         2.391338         1.995915        -1.196133
 C         2.128572         1.283349        -0.006664
 O         2.297268        -0.584341        -0.984008
 H        -0.612862        -1.021535         0.298034
 H        -0.752502         0.860615        -0.078596
 H        -0.488164        -0.317052        -1.263749
 H         1.899727         0.080766         2.339232
 H         1.748040        -1.458384         1.540075
 H         3.986145         0.331431         1.755044
 H         4.024284        -1.323534         0.972132
 H         4.540712         2.214230        -0.919249
 H         3.945716         1.239467        -2.358618
 H         1.979076         1.905647         0.964070
