19
Iteration:  1581
 C        -0.068188        -0.176518        -0.169631
 C         1.383401        -0.006430         0.132770
 C         2.111808        -0.617446         1.326762
 C         3.630500        -0.326276         1.022278
 C         3.247932         0.407296        -0.288102
 C         3.802785         1.380182        -1.322671
 O         2.335285         2.018990        -1.289161
 C         2.142302         1.434995         0.027318
 O         2.224703        -0.455444        -0.942673
 H        -0.561672        -1.080487         0.084892
 H        -0.699724         0.505365         0.315788
 H        -0.110642         0.069642        -1.231903
 H         2.004809        -0.202714         2.391456
 H         1.860028        -1.663705         1.486978
 H         4.218951         0.231073         1.780066
 H         4.121838        -1.248866         0.908283
 H         4.484780         2.152882        -0.787751
 H         4.053183         1.015387        -2.327752
 H         2.201056         2.162301         0.834863
