19
Iteration:  4655charge 0 multiplicity 1
 C        -0.076603        -0.196060        -0.142388
 C         1.347614         0.217378         0.197003
 C         1.895016         0.204691         1.687173
 C         3.416050         0.225357         1.289922
 C         3.284825         0.480285        -0.149432
 C         3.938421         0.824499        -1.503404
 O         2.628628         1.298220        -1.887811
 C         2.088360         1.394123        -0.389757
 O         2.246140        -0.653824        -0.556288
 H        -0.321896        -1.258813        -0.145686
 H        -0.631226         0.371019         0.597177
 H        -0.322337         0.292264        -1.122478
 H         1.435013         0.931430         2.403407
 H         1.819385        -0.739878         2.274108
 H         3.937978         0.989864         1.876239
 H         3.932311        -0.647007         1.645936
 H         4.677803         1.730326        -1.601893
 H         4.322965        -0.114975        -2.037546
 H         1.978347         2.411492        -0.167846
