19
Iteration:  3501
 C        -0.083802        -0.248702        -0.196465
 C         1.322759         0.142147         0.110907
 C         1.930751         0.111313         1.574319
 C         3.512736         0.120970         1.241771
 C         3.338162         0.283355        -0.241269
 C         3.814874         0.964973        -1.442583
 O         2.579527         1.828697        -1.623477
 C         2.168726         1.396112        -0.350122
 O         2.259106        -0.881554        -0.541465
 H        -0.441289         0.457346        -1.012936
 H        -0.216464        -1.296501        -0.560104
 H        -0.861343        -0.121862         0.596813
 H         1.766908         0.970879         2.108572
 H         1.587304        -0.831057         2.198587
 H         3.830555         1.084313         1.569456
 H         4.112773        -0.732731         1.490780
 H         4.703956         1.570620        -1.445355
 H         3.825475         0.307974        -2.409986
 H         1.777049         2.280494         0.240574
