19
Iteration:  4256charge 0 multiplicity 1
 C        -0.167514        -0.045114        -0.063940
 C         1.356160         0.072044         0.076223
 C         1.800728         0.212322         1.618892
 C         3.457647         0.298984         1.454741
 C         3.347518         0.285493        -0.172437
 C         3.862968         0.938447        -1.498684
 O         2.633160         1.450362        -1.955891
 C         2.104308         1.338525        -0.540180
 O         2.397707        -0.826906        -0.418832
 H        -0.482796        -1.086442        -0.470107
 H        -0.585636         0.081515         0.894270
 H        -0.441913         0.783030        -0.760487
 H         1.189591         0.956419         2.114593
 H         1.496737        -0.805226         2.118197
 H         3.907064         1.299960         1.648598
 H         4.056392        -0.506197         1.834622
 H         4.558260         1.595552        -1.057470
 H         4.336544         0.304716        -2.236737
 H         1.887614         2.265495        -0.100881
