19
Iteration:   612charge 0 multiplicity 1
 C        -0.052593        -0.222930        -0.189190
 C         1.394799         0.122772         0.160328
 C         2.095820        -0.587462         1.327784
 C         3.581282        -0.451880         0.971428
 C         3.308769         0.452935        -0.312378
 C         3.686999         1.423273        -1.387827
 O         2.408489         2.025890        -1.284695
 C         2.091766         1.439826         0.055833
 O         2.288903        -0.486454        -0.799393
 H        -0.051542        -1.322990        -0.174725
 H        -0.719683         0.316646         0.545215
 H        -0.266471         0.243044        -1.175476
 H         1.769364        -0.399558         2.357648
 H         1.793626        -1.694584         1.036638
 H         4.079777        -0.080675         1.898618
 H         4.069622        -1.404487         0.634129
 H         4.472270         2.164291        -0.962973
 H         3.956276         1.142240        -2.432208
 H         2.000613         2.397669         0.607183
