19
Iteration:  1738charge 0 multiplicity 1
 C        -0.103388        -0.174131        -0.038217
 C         1.415530         0.079197         0.084497
 C         2.083472        -0.552685         1.258692
 C         3.556189        -0.360788         0.972854
 C         3.294655         0.414488        -0.296287
 C         3.745113         1.457483        -1.309153
 O         2.362492         2.011444        -1.312403
 C         2.113522         1.339366         0.001772
 O         2.346290        -0.528369        -0.891219
 H        -0.443504        -1.227528        -0.133147
 H        -0.650064         0.330274         0.822460
 H        -0.407117         0.283175        -0.982401
 H         1.700640        -0.027513         2.208094
 H         1.866025        -1.670233         1.270110
 H         3.940388         0.138507         1.946020
 H         4.210319        -1.364021         0.905558
 H         4.532641         2.121787        -0.774666
 H         4.162956         1.204663        -2.331433
 H         2.031630         2.152609         0.726715
