19
Iteration:  3581
 C        -0.150257        -0.111632        -0.124210
 C         1.308428         0.162789         0.134630
 C         1.930477        -0.051656         1.615601
 C         3.462490         0.115657         1.293709
 C         3.295151         0.423630        -0.174927
 C         3.871936         1.002282        -1.449623
 O         2.569369         1.539628        -1.796813
 C         2.099836         1.359598        -0.422833
 O         2.382315        -0.717776        -0.554628
 H        -0.901773         0.163740         0.639212
 H        -0.427106         0.469838        -1.013758
 H        -0.295875        -1.153315        -0.323701
 H         1.555217         0.804131         2.302114
 H         1.597806        -1.019064         2.029664
 H         3.876332         0.974960         1.826759
 H         4.221471        -0.628976         1.490765
 H         4.587000         1.854048        -1.350108
 H         4.160542         0.294099        -2.141004
 H         2.134913         2.363773         0.182108
