19
Iteration:  3824
 C        -0.112293        -0.056921        -0.092500
 C         1.343992         0.043880         0.130849
 C         1.853835         0.197079         1.535380
 C         3.418237         0.292367         1.356816
 C         3.227791         0.335791        -0.155346
 C         4.016368         0.901876        -1.443052
 O         2.528388         1.462428        -1.814174
 C         2.141913         1.313721        -0.487556
 O         2.370357        -0.798263        -0.530222
 H        -0.782239         0.528608         0.566952
 H        -0.413891         0.283700        -1.088566
 H        -0.617925        -1.031448         0.123471
 H         1.469779         1.116613         2.054859
 H         1.670171        -0.594369         2.128961
 H         3.998041         1.194851         1.676628
 H         3.928818        -0.653522         1.743930
 H         4.807350         1.770862        -1.204229
 H         4.494890         0.234085        -2.159517
 H         1.938493         2.262043         0.018487
