19
Iteration:  2721charge 0 multiplicity 1
 C        -0.077418        -0.166239         0.001388
 C         1.332740         0.089827         0.099372
 C         2.015574        -0.539093         1.324200
 C         3.572717        -0.253118         1.038418
 C         3.281123         0.362869        -0.334287
 C         3.803531         1.464152        -1.301533
 O         2.462039         1.951410        -1.376993
 C         2.115685         1.379059        -0.063905
 O         2.320983        -0.572824        -0.926392
 H        -0.693545         0.749553        -0.338262
 H        -0.370321        -0.930268        -0.733053
 H        -0.606233        -0.595282         0.907056
 H         1.555111        -0.084620         2.201074
 H         1.746411        -1.533640         1.471303
 H         3.946952         0.411739         1.758572
 H         4.150146        -1.218653         1.110914
 H         4.615777         2.089748        -0.763058
 H         4.023650         1.063026        -2.285897
 H         2.126079         2.045654         0.845800
