19
Iteration:  3328charge 0 multiplicity 1
 C        -0.035071        -0.290691        -0.090775
 C         1.319913         0.190754         0.143587
 C         1.939240        -0.047913         1.521584
 C         3.457851        -0.067319         1.225660
 C         3.283266         0.375147        -0.171995
 C         3.788287         1.020336        -1.441310
 O         2.551385         1.718322        -1.649095
 C         2.171176         1.425853        -0.292263
 O         2.287436        -0.557561        -0.713377
 H        -0.422962        -0.818723         0.799733
 H        -0.698261         0.428073        -0.556179
 H         0.098633        -1.060840        -0.854866
 H         1.604042         0.669381         2.267767
 H         1.655613        -1.018181         2.110923
 H         3.974871         0.654164         1.843283
 H         3.882502        -1.084918         1.250616
 H         4.671859         1.788549        -1.350241
 H         4.141404         0.284264        -2.256486
 H         2.122086         2.411136         0.298783
