19
Iteration:  3004charge 0 multiplicity 1
 C        -0.141696        -0.181787        -0.006370
 C         1.335375         0.065079         0.073406
 C         1.979465        -0.489918         1.434422
 C         3.542648        -0.161142         1.114902
 C         3.292332         0.486955        -0.183806
 C         3.896370         1.238146        -1.396072
 O         2.473730         1.863588        -1.606369
 C         2.117978         1.435645        -0.167999
 O         2.294631        -0.546415        -0.768872
 H        -0.612912         0.792719        -0.140693
 H        -0.261777        -0.760849        -0.862501
 H        -0.479143        -0.623352         0.898847
 H         1.660353        -0.010647         2.422131
 H         1.677995        -1.497931         1.326289
 H         3.795975         0.665187         1.774994
 H         4.229205        -1.027730         1.309365
 H         4.772591         1.850087        -0.926981
 H         4.235390         0.587360        -2.203993
 H         1.965027         2.335668         0.468417
