19
Iteration:   683charge 0 multiplicity 1
 C        -0.084398        -0.241906        -0.169219
 C         1.395555         0.019001         0.188354
 C         2.025518        -0.523638         1.367327
 C         3.533028        -0.272132         0.919861
 C         3.208242         0.306239        -0.355943
 C         3.703257         1.443025        -1.377766
 O         2.505216         2.216493        -1.214211
 C         2.157718         1.387779        -0.022772
 O         2.291352        -0.670120        -0.890626
 H        -0.033350        -0.971951        -0.974371
 H        -0.591465        -0.528562         0.717487
 H        -0.518111         0.722964        -0.441353
 H         1.981302        -0.024135         2.369721
 H         1.752981        -1.518203         1.475375
 H         4.032490         0.340741         1.701116
 H         4.100004        -1.176389         0.840453
 H         4.626430         1.887779        -0.696856
 H         4.041980         1.326294        -2.459583
 H         2.138317         1.886077         1.038636
