19
Iteration:   688
 C        -0.072262        -0.261144        -0.176199
 C         1.368751         0.044229         0.154098
 C         2.060497        -0.517125         1.390360
 C         3.536411        -0.312886         0.953743
 C         3.190914         0.313182        -0.391334
 C         3.745145         1.440413        -1.384592
 O         2.512431         2.220522        -1.227944
 C         2.116072         1.375752         0.032190
 O         2.278526        -0.641629        -0.870235
 H        -0.015250        -0.963287        -1.032780
 H        -0.623758        -0.611115         0.750413
 H        -0.438088         0.725214        -0.539010
 H         1.881385        -0.023551         2.344313
 H         1.784850        -1.613299         1.567287
 H         4.088763         0.319723         1.656555
 H         4.125476        -1.253420         0.826582
 H         4.514961         1.938992        -0.912892
 H         3.995096         1.368812        -2.433299
 H         2.227463         1.968680         0.899067
