19
Iteration:   535
 C        -0.156010        -0.257511        -0.076781
 C         1.368948        -0.028457         0.084649
 C         2.081464        -0.706774         1.325690
 C         3.510005        -0.339307         1.018731
 C         3.283505         0.465573        -0.322673
 C         3.730638         1.456848        -1.339221
 O         2.473844         2.164038        -1.261543
 C         2.225601         1.434133        -0.022223
 O         2.283034        -0.528942        -0.886612
 H        -0.503202        -1.152612         0.445415
 H        -0.729568         0.604504         0.313860
 H        -0.477325        -0.244872        -1.134628
 H         1.812588        -0.225104         2.265570
 H         1.958999        -1.821069         1.139579
 H         4.172633         0.271674         1.705451
 H         3.863456        -1.314496         0.747931
 H         4.624916         2.122149        -0.987216
 H         3.972055         1.166932        -2.423471
 H         2.212097         2.247651         0.775710
