19
Iteration:  1516charge 0 multiplicity 1
 C        -0.108665        -0.322340        -0.199927
 C         1.392298         0.144037         0.085172
 C         2.081390        -0.540072         1.416772
 C         3.586731        -0.364262         0.983570
 C         3.249489         0.378342        -0.312028
 C         3.707127         1.344846        -1.392155
 O         2.478379         2.109279        -1.202044
 C         2.174426         1.417338         0.061445
 O         2.232071        -0.466839        -0.930896
 H         0.047184        -1.339518        -0.545085
 H        -0.481934        -0.324360         0.793136
 H        -0.616929         0.325971        -0.929685
 H         1.767998        -0.077683         2.330276
 H         1.791474        -1.555183         1.345713
 H         4.071560         0.493801         1.570291
 H         4.167214        -1.274313         0.984293
 H         4.649151         1.892369        -1.137997
 H         3.712192         0.849062        -2.334705
 H         2.075197         2.150233         0.832174
