19
Iteration:   875
 C        -0.182059        -0.227313        -0.123615
 C         1.383668        -0.017300         0.082622
 C         2.129042        -0.522474         1.412365
 C         3.601037        -0.314171         0.946909
 C         3.288786         0.398324        -0.338702
 C         3.815680         1.454012        -1.250079
 O         2.405582         2.069376        -1.199331
 C         2.167580         1.355984         0.014390
 O         2.232943        -0.529474        -1.049777
 H        -0.607423        -1.273352         0.069074
 H        -0.759396         0.541831         0.485721
 H        -0.501860         0.047765        -1.166677
 H         1.834557         0.024305         2.331933
 H         1.920946        -1.556647         1.757166
 H         4.238211         0.219361         1.674543
 H         4.081551        -1.324411         0.832128
 H         4.630581         2.264122        -1.009059
 H         4.045708         0.993613        -2.235184
 H         2.000839         2.007128         0.808750
