19
Iteration:  3668
 C        -0.114448        -0.154411        -0.137388
 C         1.353312         0.201997         0.167478
 C         1.924732         0.038622         1.571009
 C         3.446305         0.109536         1.290976
 C         3.265780         0.485031        -0.125968
 C         3.878034         0.824591        -1.466670
 O         2.594610         1.486255        -1.822410
 C         2.062473         1.442702        -0.336546
 O         2.372358        -0.648329        -0.585916
 H        -0.043515        -1.305111        -0.352543
 H        -0.805801         0.044475         0.708190
 H        -0.619533         0.226727        -1.035730
 H         1.545387         0.847294         2.117044
 H         1.711636        -0.880596         2.055325
 H         3.817997         0.940745         1.860670
 H         3.883455        -0.834292         1.467741
 H         4.607640         1.740950        -1.319191
 H         4.283287         0.022515        -2.120196
 H         1.907686         2.500544         0.084782
