19
Iteration:  4959
 C        -0.135436        -0.153053        -0.036340
 C         1.309911         0.197305         0.149761
 C         1.899164         0.028899         1.582712
 C         3.400626         0.318405         1.356430
 C         3.292143         0.412751        -0.136575
 C         3.863550         0.853934        -1.487962
 O         2.625210         1.448099        -1.950580
 C         2.180081         1.396680        -0.496075
 O         2.352471        -0.723499        -0.459067
 H        -0.526921        -0.579597         0.950169
 H        -0.685857         0.785865        -0.235307
 H        -0.431972        -0.856613        -0.867904
 H         1.331371         0.615985         2.259900
 H         1.643472        -1.012058         1.762506
 H         3.885776         1.070440         2.048391
 H         3.981630        -0.614958         1.481006
 H         4.479343         1.835956        -1.317056
 H         4.374134         0.152777        -2.198116
 H         2.140496         2.431067        -0.027851
