19
Iteration:  4979
 C        -0.108355        -0.129160        -0.069681
 C         1.381493         0.212246         0.073381
 C         1.856832         0.068894         1.540667
 C         3.404088         0.226331         1.396135
 C         3.350610         0.462898        -0.140768
 C         3.944005         0.780671        -1.507200
 O         2.506501         1.347221        -1.824417
 C         2.089285         1.444456        -0.393910
 O         2.394967        -0.624510        -0.547850
 H        -0.347511        -0.589405         0.863018
 H        -0.776976         0.723188        -0.259546
 H        -0.179585        -0.899336        -0.877443
 H         1.461793         0.712945         2.314058
 H         1.537362        -0.850626         1.927302
 H         3.751763         1.184240         1.841145
 H         4.109685        -0.553670         1.776785
 H         4.658132         1.694186        -1.658818
 H         3.975992        -0.127167        -2.165526
 H         1.924597         2.428479        -0.101469
