19
Iteration:  3907charge 0 multiplicity 1
 C        -0.096610        -0.264002        -0.202903
 C         1.387239         0.192519         0.099258
 C         1.815211         0.294072         1.600249
 C         3.428376         0.213235         1.378377
 C         3.320332         0.405229        -0.162059
 C         3.868725         0.754389        -1.562405
 O         2.567538         1.537931        -1.876891
 C         2.167181         1.341316        -0.370652
 O         2.336590        -0.694538        -0.376650
 H        -0.552361        -0.845711         0.601515
 H        -0.744277         0.565171        -0.506403
 H         0.019809        -0.813928        -1.117084
 H         1.698212         1.233501         2.123362
 H         1.407890        -0.589088         2.254254
 H         4.020173         0.949041         1.921777
 H         3.781466        -0.763725         1.534393
 H         4.654016         1.426842        -1.622226
 H         4.002467        -0.161966        -2.139738
 H         2.113362         2.351109         0.140244
