19
Iteration:  2579
 C        -0.170066        -0.255296        -0.067840
 C         1.320658         0.075780         0.161687
 C         2.060158        -0.588735         1.405074
 C         3.568847        -0.353820         1.073060
 C         3.291831         0.491176        -0.297509
 C         3.782518         1.435398        -1.384554
 O         2.472237         1.929365        -1.436900
 C         2.152233         1.396627         0.009029
 O         2.308575        -0.403396        -0.939422
 H        -0.329617        -0.522426        -1.101433
 H        -0.397401        -1.014908         0.607065
 H        -0.756573         0.659735         0.196852
 H         1.571398        -0.493484         2.376560
 H         1.888272        -1.622952         1.255384
 H         4.067071         0.080903         1.894132
 H         4.117093        -1.332153         0.921879
 H         4.299817         2.180947        -0.827586
 H         4.193237         1.129101        -2.287267
 H         2.325903         2.217507         0.684472
