19
Iteration:   151
 C        -0.204718        -0.212384        -0.193816
 C         1.372444        -0.040346         0.023210
 C         2.171927        -0.635083         1.321797
 C         3.662417        -0.359542         0.914540
 C         3.233671         0.407336        -0.335743
 C         3.692706         1.505317        -1.256608
 O         2.444871         2.138759        -1.071052
 C         2.213280         1.287265         0.156548
 O         2.193034        -0.443264        -1.037640
 H        -0.162213        -0.540145        -1.263698
 H        -0.570378        -1.047196         0.407076
 H        -0.743145         0.717936        -0.095770
 H         1.782671        -0.099271         2.175607
 H         2.006641        -1.766020         1.370971
 H         4.166591         0.261900         1.631070
 H         4.317206        -1.226001         0.692415
 H         4.537989         2.150211        -1.019428
 H         3.854187         1.277885        -2.381436
 H         2.442877         1.823984         1.160724
