19
Iteration:   712
 C        -0.198792        -0.312590        -0.230777
 C         1.365974         0.080060         0.090354
 C         2.112142        -0.503571         1.426877
 C         3.647231        -0.361522         1.008231
 C         3.327846         0.408690        -0.161062
 C         3.724558         1.341500        -1.373591
 O         2.447614         2.052624        -1.223877
 C         2.155803         1.390275         0.040915
 O         2.216672        -0.398609        -1.039539
 H        -0.142736        -1.148815        -0.917407
 H        -0.574000        -0.529066         0.765229
 H        -0.649340         0.558832        -0.661633
 H         2.046254         0.050438         2.376531
 H         1.830048        -1.576054         1.723587
 H         4.252572         0.086581         1.778337
 H         4.152281        -1.352371         0.699121
 H         4.527936         2.054223        -1.242823
 H         3.811227         0.912226        -2.348789
 H         2.042421         2.079947         0.923446
