19
Iteration:  2647charge 0 multiplicity 1
 C        -0.068140        -0.190410        -0.225730
 C         1.373215         0.002410         0.102360
 C         2.072121        -0.441106         1.416561
 C         3.598814        -0.296593         1.067706
 C         3.294517         0.366532        -0.315546
 C         3.646550         1.384867        -1.432626
 O         2.441254         2.113014        -1.212150
 C         2.197451         1.334938         0.032071
 O         2.257197        -0.610198        -0.927634
 H        -0.068848        -0.340859        -1.328176
 H        -0.487510        -1.017804         0.385289
 H        -0.818436         0.505695        -0.046421
 H         1.835924         0.209305         2.333913
 H         1.537349        -1.348438         1.707250
 H         4.199070         0.432885         1.698877
 H         4.272503        -1.210019         0.837178
 H         4.483893         2.053813        -1.102729
 H         3.773355         0.977807        -2.452859
 H         2.268161         1.869918         0.961537
