19
Iteration:  4734
 C        -0.128927        -0.219101        -0.167862
 C         1.351444         0.254359         0.083898
 C         1.886875         0.211740         1.581803
 C         3.470054         0.257644         1.310895
 C         3.269418         0.371396        -0.148261
 C         3.841865         0.735349        -1.507767
 O         2.607976         1.479706        -1.779184
 C         2.126245         1.443145        -0.350092
 O         2.344127        -0.716802        -0.470301
 H        -0.608856        -0.756919         0.718004
 H        -0.777559         0.544142        -0.542560
 H        -0.082681        -0.927180        -1.001000
 H         1.450082         0.995580         2.143523
 H         1.750161        -0.816754         1.965970
 H         3.900553         1.236735         1.636663
 H         4.033323        -0.627931         1.567272
 H         4.853018         1.315244        -1.551514
 H         3.910443        -0.108478        -2.239758
 H         2.086359         2.371024         0.158011
