19
Iteration:   815
 C        -0.141164        -0.234205        -0.149995
 C         1.430918         0.024878         0.094691
 C         2.010380        -0.627425         1.382086
 C         3.611696        -0.403268         1.010168
 C         3.327638         0.417326        -0.309712
 C         3.688175         1.428050        -1.447762
 O         2.402235         2.148877        -1.192689
 C         2.184634         1.361344        -0.004158
 O         2.335076        -0.462947        -0.901913
 H        -0.609938        -0.902893         0.526055
 H        -0.645640         0.688182         0.064681
 H        -0.331087        -0.529810        -1.173770
 H         1.842469        -0.113337         2.350549
 H         1.712466        -1.660679         1.267188
 H         3.925324         0.228069         1.857114
 H         4.134817        -1.312816         0.820884
 H         4.490722         2.115600        -1.077162
 H         3.832926         0.917459        -2.443616
 H         2.053386         2.106877         0.912667
