19
Iteration:  2534charge 0 multiplicity 1
 C        -0.166501        -0.241495        -0.218793
 C         1.403684        -0.002570         0.053455
 C         2.070961        -0.399305         1.469273
 C         3.595131        -0.245988         1.030642
 C         3.277554         0.316876        -0.307065
 C         3.691797         1.362441        -1.394976
 O         2.483383         2.160836        -1.215335
 C         2.148634         1.335432        -0.025720
 O         2.315160        -0.617678        -0.906618
 H        -0.342273         0.249591        -1.154230
 H        -0.377830        -1.276205        -0.281603
 H        -0.776033         0.269934         0.604375
 H         1.827818         0.249798         2.324862
 H         1.818392        -1.373093         1.903332
 H         4.392537         0.252202         1.555283
 H         3.939421        -1.273190         0.898467
 H         4.581707         1.895606        -1.170836
 H         3.506277         0.926549        -2.345515
 H         1.948034         1.990747         0.829266
