19
Iteration:  4073
 C        -0.073137        -0.201939        -0.195968
 C         1.333153         0.126070         0.140317
 C         1.816633         0.292977         1.624533
 C         3.449586         0.267777         1.335505
 C         3.269860         0.413091        -0.171031
 C         3.850351         0.783394        -1.534259
 O         2.594195         1.442012        -1.827831
 C         2.161040         1.443888        -0.415719
 O         2.377978        -0.796181        -0.435007
 H        -0.274410        -1.217513         0.250716
 H        -0.834025         0.414314         0.204041
 H        -0.246009        -0.250998        -1.282147
 H         1.506925         1.304209         2.077567
 H         1.426563        -0.497824         2.212461
 H         3.913386         1.119791         1.713548
 H         4.065370        -0.596105         1.655929
 H         4.689356         1.507739        -1.452151
 H         3.920869         0.002210        -2.254595
 H         2.141289         2.455238         0.170409
