19
Iteration:  3423
 C        -0.151496        -0.048419        -0.114345
 C         1.361583         0.139498         0.156134
 C         1.931022        -0.202967         1.574299
 C         3.476231         0.035162         1.235418
 C         3.286233         0.463485        -0.234455
 C         3.926152         1.126110        -1.394979
 O         2.490412         1.510919        -1.764330
 C         2.111747         1.406091        -0.331000
 O         2.373440        -0.700646        -0.604473
 H        -0.230621        -0.887112        -0.790886
 H        -0.570568        -0.290506         0.876386
 H        -0.726048         0.904738        -0.490135
 H         1.519470         0.458579         2.294683
 H         1.705888        -1.264499         2.028367
 H         3.896395         0.985390         1.631242
 H         4.006719        -0.837731         1.573516
 H         4.438239         2.059092        -1.270571
 H         4.466739         0.547731        -2.251218
 H         1.925928         2.413381         0.093160
