19
Iteration:  1547
 C        -0.105000        -0.221512        -0.212801
 C         1.367129        -0.062773         0.011246
 C         2.083092        -0.435511         1.473971
 C         3.551701        -0.327950         1.032255
 C         3.268669         0.435079        -0.377084
 C         3.714391         1.422780        -1.481976
 O         2.433342         2.174374        -1.051208
 C         2.170591         1.337182        -0.019789
 O         2.315174        -0.632724        -0.910824
 H        -0.425123        -1.189612        -0.406933
 H        -0.445969         0.181268         0.695617
 H        -0.476177         0.413075        -1.014117
 H         1.747306         0.175314         2.392756
 H         1.842853        -1.511484         1.585051
 H         4.302025         0.197326         1.524256
 H         3.851555        -1.288765         0.852497
 H         4.743905         1.857003        -1.283931
 H         3.773399         0.949425        -2.479507
 H         2.049086         1.891327         0.915979
