19
Iteration:  4978charge 0 multiplicity 1
 C        -0.114040        -0.133782        -0.058651
 C         1.385696         0.212734         0.063407
 C         1.850928         0.064186         1.534432
 C         3.412099         0.221036         1.402231
 C         3.342824         0.466291        -0.142735
 C         3.941384         0.794360        -1.503516
 O         2.507031         1.346066        -1.826913
 C         2.098406         1.453065        -0.407314
 O         2.394463        -0.631482        -0.540623
 H        -0.369149        -0.569492         0.838252
 H        -0.772655         0.729139        -0.251314
 H        -0.167433        -0.886246        -0.862578
 H         1.469569         0.708036         2.352676
 H         1.551424        -0.865395         1.927305
 H         3.722809         1.170318         1.803775
 H         4.115507        -0.554884         1.805769
 H         4.669098         1.670472        -1.641042
 H         3.938989        -0.109251        -2.130915
 H         1.964545         2.421437        -0.129174
