19
Iteration:  1920
 C        -0.149953        -0.209693        -0.105388
 C         1.410162         0.057254         0.044484
 C         2.000121        -0.601951         1.322151
 C         3.659606        -0.328370         1.036085
 C         3.291271         0.433836        -0.175530
 C         3.749294         1.314427        -1.307943
 O         2.431900         2.019538        -1.326800
 C         2.138126         1.408672        -0.018070
 O         2.283484        -0.393413        -0.947719
 H        -0.021014        -1.316558        -0.341655
 H        -0.458685         0.010268         0.935928
 H        -0.786075         0.281478        -0.859444
 H         1.748170        -0.156332         2.250010
 H         1.689341        -1.640987         1.288819
 H         4.097170         0.343716         1.801231
 H         4.238531        -1.169065         0.818698
 H         4.606301         1.983202        -1.146645
 H         3.910811         0.709469        -2.200940
 H         1.891603         2.160093         0.787303
