19
Iteration:  1742charge 0 multiplicity 1
 C        -0.111383        -0.161157        -0.047973
 C         1.398145        -0.003541         0.072714
 C         2.098483        -0.567470         1.265283
 C         3.552923        -0.323353         0.993291
 C         3.260322         0.396530        -0.330518
 C         3.730902         1.470198        -1.280701
 O         2.375534         2.039263        -1.320366
 C         2.166567         1.354233        -0.014846
 O         2.332085        -0.535729        -0.876766
 H        -0.448628        -1.228034         0.032286
 H        -0.581109         0.335537         0.826288
 H        -0.365036         0.318487        -1.052891
 H         1.744750        -0.117526         2.126422
 H         1.774186        -1.584541         1.293331
 H         4.072609         0.188317         1.819760
 H         4.160564        -1.294845         0.933297
 H         4.423129         2.045714        -0.687273
 H         4.180365         1.248237        -2.257935
 H         2.110366         2.152358         0.722487
