19
Iteration:  2065charge 0 multiplicity 1
 C        -0.093765        -0.246949        -0.132804
 C         1.375760         0.004089         0.083478
 C         2.086925        -0.462263         1.461145
 C         3.604956        -0.347481         0.992271
 C         3.225623         0.402783        -0.250489
 C         3.753628         1.334331        -1.316870
 O         2.487635         2.036632        -1.308637
 C         2.099088         1.383811        -0.018027
 O         2.259991        -0.469314        -0.950077
 H        -0.260730        -1.064435        -0.876965
 H        -0.556691        -0.286577         0.893233
 H        -0.525350         0.649604        -0.677424
 H         1.790275         0.003722         2.354796
 H         1.712417        -1.485354         1.512998
 H         4.255353         0.273145         1.534560
 H         4.145356        -1.204921         0.741818
 H         4.470304         2.087833        -1.072809
 H         4.008293         1.039708        -2.335030
 H         1.918184         2.195784         0.734216
