19
Iteration:  4599
 C        -0.100667        -0.214952        -0.102314
 C         1.290055         0.169190         0.182635
 C         1.831935         0.328267         1.597504
 C         3.449542         0.341030         1.318517
 C         3.235290         0.300455        -0.220395
 C         3.889019         0.747765        -1.591032
 O         2.645210         1.606537        -1.760517
 C         2.201771         1.307592        -0.454721
 O         2.321323        -0.856467        -0.447852
 H        -0.042190        -1.158800        -0.585286
 H        -0.767148        -0.326894         0.778157
 H        -0.447174         0.444826        -0.899423
 H         1.409913         1.377332         1.823178
 H         1.623444        -0.448584         2.294547
 H         3.706238         1.300587         1.681380
 H         3.970996        -0.520449         1.702839
 H         4.717860         1.588486        -1.573776
 H         4.134653        -0.083818        -2.320121
 H         2.217863         2.152400         0.163440
