19
Iteration:  2442
 C        -0.113216        -0.132793        -0.011952
 C         1.365855         0.109656         0.071244
 C         2.088409        -0.540154         1.397392
 C         3.560131        -0.324765         1.070344
 C         3.281080         0.388848        -0.272130
 C         3.824138         1.421393        -1.262856
 O         2.373440         1.995780        -1.437934
 C         2.109761         1.353338        -0.108560
 O         2.347551        -0.581577        -0.942272
 H        -0.654449         0.748805        -0.491832
 H        -0.351642        -0.965418        -0.750989
 H        -0.587097        -0.266418         0.936615
 H         1.726544        -0.017800         2.219759
 H         1.582301        -1.503416         1.500680
 H         4.213962         0.147974         1.789887
 H         4.138074        -1.174350         0.883124
 H         4.457094         2.104400        -0.609534
 H         4.092652         1.008910        -2.254354
 H         2.000787         2.087217         0.742600
