19
Iteration:  3673charge 0 multiplicity 1
 C        -0.093707        -0.168414        -0.120347
 C         1.367021         0.171042         0.119294
 C         1.909383         0.039472         1.571956
 C         3.454040         0.143444         1.277935
 C         3.275749         0.485559        -0.128208
 C         3.953631         0.856961        -1.434556
 O         2.552337         1.442946        -1.792527
 C         2.111895         1.421391        -0.351629
 O         2.320680        -0.637879        -0.584683
 H        -0.337395        -1.122569        -0.612445
 H        -0.739483         0.003942         0.735662
 H        -0.743663         0.386856        -0.878375
 H         1.486743         0.930629         2.246831
 H         1.675334        -0.971423         2.035853
 H         3.881465         0.997349         1.909721
 H         3.965025        -0.861974         1.527759
 H         4.469195         1.762126        -1.360018
 H         4.275516         0.177328        -2.228891
 H         1.918507         2.506044        -0.064957
