19
Iteration:  2192charge 0 multiplicity 1
 C        -0.126554        -0.078965        -0.098185
 C         1.400378         0.004692        -0.065283
 C         2.058434        -0.527686         1.414442
 C         3.590762        -0.290873         1.020145
 C         3.374883         0.417373        -0.348036
 C         3.745820         1.431325        -1.316274
 O         2.362594         1.968130        -1.230547
 C         2.120419         1.274647         0.019145
 O         2.301085        -0.563816        -0.964840
 H        -0.497066        -0.837916         0.582529
 H        -0.528707         0.881596         0.202258
 H        -0.304360        -0.183669        -1.075862
 H         1.698891         0.132670         2.287564
 H         1.891205        -1.635699         1.557318
 H         4.168095         0.417178         1.761340
 H         4.003060        -1.309459         1.039596
 H         4.398607         2.068267        -0.726356
 H         4.025901         1.366801        -2.364704
 H         2.100570         1.963463         0.837325
