19
Iteration:  1563
 C        -0.139460        -0.145915        -0.213281
 C         1.391791         0.030371         0.019541
 C         2.111815        -0.495923         1.445122
 C         3.658307        -0.321035         0.941126
 C         3.274667         0.320779        -0.278058
 C         3.659900         1.387719        -1.329221
 O         2.454658         2.134281        -1.200109
 C         2.066649         1.299291         0.054201
 O         2.330535        -0.576314        -0.943906
 H        -0.378009        -1.269282        -0.114321
 H        -0.686001         0.454462         0.590631
 H        -0.372185         0.251645        -1.224410
 H         1.856010         0.185639         2.229650
 H         1.855039        -1.519949         1.697589
 H         4.102299         0.358378         1.763287
 H         4.253039        -1.307533         0.777661
 H         4.423660         2.119638        -1.150670
 H         3.666788         1.037324        -2.366839
 H         1.980609         1.963598         0.922374
