19
Iteration:  3124charge 0 multiplicity 1
 C        -0.135564        -0.111285        -0.159914
 C         1.333820         0.138487         0.137885
 C         1.980765        -0.427766         1.502825
 C         3.573220        -0.077020         1.231334
 C         3.295511         0.444313        -0.182563
 C         3.851392         1.140168        -1.440202
 O         2.436921         1.754352        -1.566286
 C         2.153412         1.436889        -0.206953
 O         2.285265        -0.562567        -0.788260
 H        -0.256068        -1.162713         0.163920
 H        -0.729479         0.606071         0.361962
 H        -0.186550        -0.033464        -1.230159
 H         1.697122         0.215982         2.446169
 H         1.962325        -1.464238         1.659103
 H         3.916916         0.685206         1.972437
 H         4.273402        -0.984586         1.277256
 H         4.670692         1.851806        -1.282755
 H         3.954510         0.544271        -2.290930
 H         2.054279         2.245446         0.494409
