19
Iteration:  1562
 C        -0.137497        -0.147744        -0.214222
 C         1.391797         0.027653         0.008699
 C         2.106742        -0.489577         1.451938
 C         3.651378        -0.317127         0.937498
 C         3.276725         0.317378        -0.283167
 C         3.664978         1.390847        -1.336687
 O         2.458191         2.136371        -1.195169
 C         2.063027         1.296320         0.060754
 O         2.332921        -0.580501        -0.940776
 H        -0.390900        -1.256109        -0.111419
 H        -0.673459         0.421379         0.588787
 H        -0.387335         0.269297        -1.213533
 H         1.879011         0.161826         2.262926
 H         1.865427        -1.497799         1.701131
 H         4.128828         0.352427         1.766346
 H         4.217931        -1.298521         0.784129
 H         4.432059         2.136293        -1.174493
 H         3.633704         1.045246        -2.355567
 H         1.979735         1.943827         0.922743
