19
Iteration:  2892
 C        -0.056641        -0.230422        -0.024130
 C         1.344225         0.120180         0.049368
 C         1.988026        -0.429348         1.402449
 C         3.538647        -0.260359         1.154945
 C         3.238222         0.414030        -0.268945
 C         3.848313         1.257066        -1.375380
 O         2.471712         1.935259        -1.420559
 C         2.135173         1.385362        -0.121737
 O         2.310033        -0.502135        -0.886220
 H        -0.351200        -1.213231        -0.335602
 H        -0.645543         0.024466         0.824727
 H        -0.671489         0.137808        -0.877888
 H         1.673837         0.176598         2.301828
 H         1.853355        -1.559147         1.562854
 H         4.079908         0.489811         1.850470
 H         3.986323        -1.283100         1.199997
 H         4.498677         2.186313        -1.028701
 H         4.170014         0.862515        -2.386036
 H         2.015583         2.274103         0.486118
