19
Iteration:  3934
 C        -0.103079        -0.215483        -0.185503
 C         1.393217         0.162559         0.149430
 C         1.851624         0.342358         1.585979
 C         3.416410         0.338308         1.382654
 C         3.238336         0.286160        -0.201647
 C         3.946104         0.809494        -1.505164
 O         2.550021         1.504779        -1.823048
 C         2.137116         1.348168        -0.417176
 O         2.331204        -0.856873        -0.468424
 H        -0.437918        -1.190960         0.282012
 H        -0.704845         0.678170         0.090615
 H        -0.173919        -0.206457        -1.308456
 H         1.649531         1.329110         2.092709
 H         1.555693        -0.422453         2.218966
 H         4.006001         1.176520         1.794384
 H         3.874644        -0.630994         1.788521
 H         4.642467         1.683417        -1.282353
 H         4.319398         0.165389        -2.316436
 H         2.161069         2.266197         0.090111
