19
Iteration:  2873charge 0 multiplicity 1
 C        -0.081231        -0.178535        -0.005491
 C         1.390553         0.035297         0.071700
 C         1.949183        -0.469648         1.426644
 C         3.515558        -0.166225         1.058780
 C         3.335497         0.352057        -0.307009
 C         3.762458         1.375064        -1.285746
 O         2.521836         1.987982        -1.486814
 C         2.133664         1.408603        -0.094019
 O         2.277090        -0.645779        -0.896027
 H        -0.417011        -1.268819         0.301003
 H        -0.576756         0.673235         0.534482
 H        -0.620016        -0.095644        -1.037867
 H         1.747423        -0.004262         2.416288
 H         1.681012        -1.503513         1.338029
 H         3.805957         0.521171         1.856369
 H         4.234980        -1.052024         1.121608
 H         4.571468         1.952313        -0.867248
 H         4.169952         0.890363        -2.160042
 H         2.100593         2.233699         0.727089
