19
Iteration:   313charge 0 multiplicity 1
 C        -0.062072        -0.255883        -0.264131
 C         1.377142         0.029112         0.122342
 C         2.041671        -0.649021         1.370273
 C         3.610121        -0.414682         0.993160
 C         3.311551         0.426707        -0.298253
 C         3.691428         1.408191        -1.445839
 O         2.419015         2.120627        -1.169429
 C         2.178438         1.440430         0.109940
 O         2.264747        -0.446630        -0.882341
 H        -0.674687        -0.990100         0.244759
 H        -0.704108         0.631116        -0.301325
 H        -0.040315        -0.586230        -1.283273
 H         1.956719        -0.093627         2.291657
 H         1.642984        -1.673869         1.471331
 H         4.047553         0.193718         1.825200
 H         4.194415        -1.355491         0.875834
 H         4.593272         2.100153        -1.263628
 H         3.648859         1.084251        -2.522744
 H         2.161739         2.199824         0.941820
