19
Iteration:  3271charge 0 multiplicity 1
 C        -0.074080        -0.047145        -0.109627
 C         1.372219         0.039535         0.057747
 C         1.923985        -0.168174         1.535556
 C         3.480786         0.025639         1.189518
 C         3.267394         0.378156        -0.209885
 C         3.870331         1.099147        -1.423605
 O         2.451298         1.702571        -1.601521
 C         2.124154         1.352650        -0.255605
 O         2.357432        -0.715632        -0.685445
 H        -0.356240         0.940154         0.113446
 H        -0.197483        -0.218352        -1.167509
 H        -0.490425        -0.848620         0.518017
 H         1.492962         0.349220         2.375835
 H         1.942855        -1.336613         1.809954
 H         3.753497         0.869006         1.797295
 H         4.129576        -0.766163         1.396117
 H         4.390166         2.031997        -1.117342
 H         4.263759         0.805298        -2.455246
 H         2.100600         2.308609         0.399618
