19
Iteration:   846
 C        -0.034960        -0.292680        -0.198898
 C         1.425801         0.119275         0.159492
 C         2.094922        -0.575511         1.353136
 C         3.634788        -0.457702         0.945178
 C         3.273189         0.440578        -0.233506
 C         3.717256         1.331007        -1.331101
 O         2.382981         2.102738        -1.245437
 C         2.150816         1.463372         0.022744
 O         2.198247        -0.410684        -0.924320
 H        -0.401782        -1.196610         0.269722
 H        -0.777167         0.457995        -0.065972
 H        -0.088061        -0.487957        -1.272019
 H         1.985731        -0.159133         2.410045
 H         1.729701        -1.570045         1.338837
 H         4.194795        -0.013495         1.802377
 H         4.138621        -1.374512         0.688938
 H         4.465028         2.016431        -1.129705
 H         3.880921         0.796069        -2.255174
 H         1.973334         2.236212         0.821671
