19
Iteration:  1314
 C        -0.147865        -0.178199        -0.098280
 C         1.386839         0.002614         0.097124
 C         2.110255        -0.674171         1.345211
 C         3.564402        -0.328826         0.967131
 C         3.268163         0.415634        -0.327044
 C         3.860962         1.469001        -1.265614
 O         2.441700         2.114242        -1.252355
 C         2.120296         1.366699        -0.063639
 O         2.224226        -0.595425        -0.949483
 H        -0.510517        -1.031155        -0.638417
 H        -0.553647        -0.156068         0.914574
 H        -0.608357         0.700908        -0.497769
 H         1.708902         0.063937         2.169466
 H         1.748014        -1.708742         1.621100
 H         3.931857         0.349732         1.692016
 H         4.435587        -0.993068         0.813386
 H         4.594721         2.116474        -0.667887
 H         4.338005         1.499106        -2.342255
 H         1.848970         2.084472         0.794371
