19
Iteration:  2298charge 0 multiplicity 1
 C        -0.131441        -0.104888        -0.097365
 C         1.336140        -0.007022         0.105616
 C         2.072366        -0.539974         1.346037
 C         3.644605        -0.338589         1.071554
 C         3.276933         0.381153        -0.322545
 C         3.779077         1.437202        -1.277294
 O         2.416786         2.086223        -1.333629
 C         2.130389         1.278275        -0.071179
 O         2.316557        -0.595001        -0.914643
 H        -0.502988        -0.904061        -0.831715
 H        -0.692718        -0.255112         0.893310
 H        -0.764037         0.823230        -0.443380
 H         1.620625        -0.021949         2.169553
 H         1.759117        -1.541724         1.497909
 H         4.179018         0.389076         1.579446
 H         4.373607        -1.138272         0.849279
 H         4.500883         2.146479        -0.681235
 H         4.198850         1.365189        -2.293223
 H         1.846222         2.102692         0.664895
