19
Iteration:   975charge 0 multiplicity 1
 C         0.006707        -0.186112        -0.226976
 C         1.422763         0.029808         0.134598
 C         2.027556        -0.589334         1.406014
 C         3.573523        -0.419345         0.959973
 C         3.325440         0.427570        -0.300061
 C         3.678046         1.469663        -1.390019
 O         2.415424         2.174890        -1.295527
 C         2.120182         1.367101         0.119722
 O         2.230917        -0.595715        -0.877429
 H        -0.166001        -1.304677        -0.382179
 H        -0.565982         0.055797         0.693694
 H        -0.308051         0.424947        -1.124304
 H         1.749393        -0.009240         2.323937
 H         1.869691        -1.567999         1.638260
 H         4.229883         0.107327         1.729747
 H         3.929005        -1.408652         0.656593
 H         4.660110         2.089257        -1.126065
 H         3.770974         1.138023        -2.431532
 H         2.180675         2.125746         0.845716
