19
Iteration:  2948charge 0 multiplicity 1
 C        -0.035244        -0.136394        -0.286520
 C         1.370644         0.064581         0.103306
 C         2.048080        -0.314985         1.522699
 C         3.564284        -0.209098         1.125807
 C         3.253738         0.335146        -0.257344
 C         3.684086         1.284125        -1.446272
 O         2.429904         1.963758        -1.368290
 C         2.190458         1.392795        -0.100312
 O         2.275646        -0.665398        -0.772600
 H         0.109623        -0.305064        -1.366521
 H        -0.455733        -1.065120         0.081036
 H        -0.854799         0.481768         0.087862
 H         1.655400         0.421319         2.325020
 H         1.836607        -1.370466         1.858507
 H         4.312620         0.438666         1.675016
 H         4.012835        -1.264765         1.200541
 H         4.649589         1.958125        -1.227831
 H         3.818504         0.851795        -2.493834
 H         2.256691         2.186513         0.674213
