19
Iteration:  2447
 C        -0.106260        -0.134705        -0.027313
 C         1.329659         0.086427         0.105573
 C         2.057986        -0.545973         1.407879
 C         3.561992        -0.340171         1.062787
 C         3.273671         0.457009        -0.234847
 C         3.826748         1.405152        -1.269301
 O         2.389073         1.971796        -1.443025
 C         2.126469         1.353274        -0.133887
 O         2.357177        -0.559730        -0.951200
 H        -0.628563         0.710677        -0.418493
 H        -0.369617        -0.871774        -0.760115
 H        -0.592894        -0.269505         0.982300
 H         1.844553        -0.057008         2.493679
 H         1.611826        -1.592446         1.332428
 H         4.287393         0.226548         1.747421
 H         4.122323        -1.340441         0.891962
 H         4.443046         2.162136        -0.803697
 H         4.077039         1.112765        -2.292463
 H         1.969054         2.057481         0.688862
