19
Iteration:   276charge 0 multiplicity 1
 C        -0.144099        -0.254158        -0.127495
 C         1.372055         0.042043         0.082003
 C         2.027097        -0.657183         1.263691
 C         3.569810        -0.371418         0.915096
 C         3.303844         0.496782        -0.266118
 C         3.774233         1.428081        -1.328220
 O         2.414644         2.077176        -1.188863
 C         2.155580         1.408384         0.083686
 O         2.318836        -0.468190        -0.946656
 H        -0.527045        -0.133365         0.937489
 H        -0.483116         0.534530        -0.843669
 H        -0.299850        -1.313965        -0.532628
 H         1.724585        -0.231725         2.258384
 H         1.729971        -1.723257         1.363299
 H         4.144690         0.174642         1.680056
 H         4.164135        -1.310282         0.684558
 H         4.568299         2.119722        -0.918894
 H         3.959997         1.068860        -2.350181
 H         2.125154         2.073422         0.911724
