19
Iteration:  2814
 C        -0.024136        -0.209553        -0.257719
 C         1.438296         0.076845         0.140913
 C         2.012309        -0.419948         1.461728
 C         3.549097        -0.299949         1.095353
 C         3.304882         0.446185        -0.304643
 C         3.749587         1.266774        -1.442106
 O         2.349300         1.976368        -1.321889
 C         2.171479         1.411092        -0.015155
 O         2.285159        -0.523552        -0.829728
 H        -0.613845        -0.219140         0.612051
 H        -0.420696         0.604871        -0.920397
 H         0.003157        -1.097179        -0.874951
 H         1.817925         0.112431         2.413478
 H         1.664794        -1.499683         1.680726
 H         4.073760         0.017309         2.083484
 H         3.858344        -1.302709         0.859416
 H         4.620765         2.020004        -1.311928
 H         3.697539         0.775932        -2.451195
 H         2.272946         2.193719         0.690932
