19
Iteration:  3015
 C        -0.176698        -0.243292        -0.010515
 C         1.331633         0.121329         0.139473
 C         1.929217        -0.462226         1.446007
 C         3.512054        -0.127131         1.123142
 C         3.271519         0.413609        -0.292475
 C         3.909375         1.242497        -1.354347
 O         2.537988         1.807278        -1.568884
 C         2.161040         1.460132        -0.187754
 O         2.311976        -0.499456        -0.768054
 H        -0.798043         0.645327         0.106654
 H        -0.428994        -0.599073        -0.952404
 H        -0.600360        -0.959568         0.666102
 H         1.500108        -0.145171         2.467410
 H         1.933015        -1.517107         1.561769
 H         4.051085         0.609311         1.731528
 H         4.186024        -1.040508         1.034000
 H         4.488505         2.255448        -1.316329
 H         4.223867         0.715018        -2.260977
 H         2.137066         2.352987         0.479134
