19
Iteration:  3956charge 0 multiplicity 1
 C        -0.153358        -0.126548        -0.162837
 C         1.369431         0.163853         0.122909
 C         1.863483         0.203981         1.612651
 C         3.454005         0.347543         1.305507
 C         3.257729         0.351402        -0.121149
 C         3.878936         0.886651        -1.429875
 O         2.657880         1.362673        -1.844178
 C         2.100578         1.328831        -0.512159
 O         2.338217        -0.777328        -0.476558
 H        -0.295630        -1.226081         0.024482
 H        -0.731673         0.359451         0.673732
 H        -0.634780         0.255257        -1.102467
 H         1.525267         1.139688         2.180961
 H         1.715426        -0.659577         2.178040
 H         3.790316         1.342545         1.642717
 H         4.132821        -0.451732         1.761852
 H         4.649803         1.688310        -1.230839
 H         4.220179         0.065028        -2.072092
 H         1.994963         2.325372        -0.218914
