19
Iteration:  1109charge 0 multiplicity 1
 C        -0.144500        -0.161239        -0.230644
 C         1.359610        -0.043979         0.068605
 C         2.084534        -0.483811         1.386742
 C         3.536075        -0.361737         0.938584
 C         3.282184         0.369699        -0.374500
 C         3.720781         1.419484        -1.364539
 O         2.386520         2.193775        -1.146871
 C         2.239207         1.310834         0.051592
 O         2.319266        -0.611634        -0.836468
 H        -0.231143        -1.166811        -0.765592
 H        -0.838205        -0.158961         0.705653
 H        -0.462363         0.574515        -1.011554
 H         1.870036         0.186884         2.218532
 H         1.842890        -1.544023         1.709910
 H         4.225749         0.185846         1.616072
 H         4.183907        -1.285023         0.649427
 H         4.380517         2.305021        -1.067868
 H         4.038321         1.196921        -2.454002
 H         2.305897         1.906080         0.923271
