19
Iteration:  2197
 C        -0.095158        -0.075730        -0.073042
 C         1.384765        -0.014836        -0.040973
 C         2.090936        -0.464492         1.428262
 C         3.612649        -0.292634         1.024776
 C         3.329260         0.365742        -0.376384
 C         3.741033         1.448505        -1.289325
 O         2.386360         1.988943        -1.200087
 C         2.125918         1.281788        -0.000924
 O         2.296828        -0.580816        -0.979871
 H        -0.597936        -1.002944         0.338024
 H        -0.731654         0.871353        -0.051872
 H        -0.473496        -0.296270        -1.266386
 H         1.883410         0.067973         2.302945
 H         1.770758        -1.482010         1.537128
 H         4.008833         0.355400         1.768930
 H         3.995355        -1.314065         0.985927
 H         4.537921         2.213391        -0.874540
 H         3.954780         1.269565        -2.377810
 H         1.997544         1.907838         0.940413
