19
Iteration:  4393charge 0 multiplicity 1
 C        -0.101055        -0.076920        -0.146730
 C         1.335067         0.207665         0.123963
 C         1.924444         0.163856         1.608062
 C         3.442780         0.260616         1.282082
 C         3.265662         0.324827        -0.180128
 C         3.882303         0.986901        -1.408161
 O         2.547537         1.359619        -1.893698
 C         2.122256         1.263680        -0.421319
 O         2.347521        -0.772699        -0.434514
 H        -0.768255        -0.358907         0.651017
 H        -0.678522         0.848336        -0.506462
 H        -0.238037        -0.826895        -0.920240
 H         1.656562         0.992968         2.245700
 H         1.574569        -0.755021         1.968077
 H         3.940194         1.245955         1.674730
 H         3.954119        -0.645039         1.706043
 H         4.500606         1.905326        -1.094551
 H         4.497806         0.326666        -2.061173
 H         2.332071         2.378839        -0.216087
