19
Iteration:  2893charge 0 multiplicity 1
 C        -0.057629        -0.237433        -0.027594
 C         1.340635         0.117441         0.047414
 C         1.982987        -0.422767         1.412427
 C         3.545121        -0.255791         1.150930
 C         3.245672         0.423107        -0.264608
 C         3.845496         1.257532        -1.377643
 O         2.472586         1.931664        -1.421719
 C         2.140932         1.379082        -0.112894
 O         2.306629        -0.499664        -0.891611
 H        -0.362132        -1.214571        -0.397857
 H        -0.663239         0.011132         0.816964
 H        -0.712135         0.166188        -0.865230
 H         1.690162         0.176055         2.329854
 H         1.857511        -1.532962         1.547160
 H         4.090533         0.460607         1.862878
 H         3.984409        -1.306345         1.190728
 H         4.500160         2.176252        -1.061288
 H         4.170237         0.826192        -2.360845
 H         2.007736         2.295869         0.502796
