19
Iteration:   450charge 0 multiplicity 1
 C        -0.083265        -0.189197        -0.232996
 C         1.403001        -0.039032        -0.035954
 C         2.071235        -0.438311         1.422761
 C         3.684031        -0.307258         1.040661
 C         3.268259         0.331539        -0.283379
 C         3.651545         1.429194        -1.395994
 O         2.415463         2.145584        -1.137668
 C         2.162799         1.364104         0.065538
 O         2.259736        -0.650959        -0.971247
 H        -0.516111        -0.852684        -1.071221
 H        -0.531369        -0.427363         0.761487
 H        -0.477282         0.842371        -0.447322
 H         1.702983         0.113717         2.305659
 H         1.668794        -1.522948         1.556065
 H         4.218749         0.521966         1.610881
 H         4.090102        -1.419504         0.953547
 H         4.548704         1.987412        -1.016379
 H         3.904418         1.100900        -2.412527
 H         2.242247         2.032864         1.028206
