19
Iteration:  2431
 C        -0.126209        -0.131106        -0.051248
 C         1.414185        -0.002600         0.026271
 C         2.036509        -0.464275         1.356833
 C         3.593854        -0.299922         1.034930
 C         3.295117         0.310057        -0.353762
 C         3.742116         1.408800        -1.259233
 O         2.423147         2.004858        -1.353587
 C         2.109736         1.404718        -0.047223
 O         2.297205        -0.588066        -0.905349
 H        -0.606354         0.732642        -0.611313
 H        -0.296636        -1.150823        -0.509828
 H        -0.501840        -0.271787         0.940429
 H         1.749253         0.233601         2.075282
 H         1.919178        -1.494848         1.684934
 H         3.921357         0.381917         1.783371
 H         4.052159        -1.233870         0.956562
 H         4.473575         2.139248        -0.756597
 H         4.366711         1.188639        -2.160767
 H         2.156937         2.198120         0.747052
