19
Iteration:  4707
 C        -0.110515        -0.047858        -0.126065
 C         1.383974         0.068982         0.113489
 C         1.837680         0.170055         1.654091
 C         3.440533         0.351886         1.372127
 C         3.292591         0.324163        -0.155964
 C         3.865498         0.885381        -1.555692
 O         2.594917         1.507191        -1.802688
 C         2.098626         1.259116        -0.458456
 O         2.366917        -0.847284        -0.493702
 H        -0.645523        -0.494808         0.641259
 H        -0.413646         1.028511        -0.347203
 H        -0.377606        -0.520647        -1.083331
 H         1.275662         1.200053         1.823747
 H         1.863593        -0.604064         2.406235
 H         3.871862         1.240235         1.809301
 H         4.008289        -0.597596         1.588923
 H         4.687513         1.580130        -1.417077
 H         4.124562         0.300016        -2.447231
 H         2.067982         2.238653         0.136981
