19
Iteration:  3681charge 0 multiplicity 1
 C        -0.124338        -0.163333        -0.125007
 C         1.337166         0.143920         0.078309
 C         1.887229         0.042821         1.587647
 C         3.457867         0.174229         1.318521
 C         3.308253         0.442407        -0.165390
 C         3.955468         0.935257        -1.418652
 O         2.523009         1.405384        -1.772490
 C         2.163647         1.400652        -0.410342
 O         2.292460        -0.640118        -0.578691
 H        -0.370645        -1.131499        -0.631773
 H        -0.581755        -0.193857         0.859018
 H        -0.471164         0.744574        -0.681251
 H         1.530645         0.817299         2.319349
 H         1.595122        -0.876540         1.949335
 H         4.002965         0.983121         1.879457
 H         4.050081        -0.758585         1.494978
 H         4.668558         1.816402        -1.357939
 H         4.297936         0.237024        -2.123240
 H         1.956243         2.486389         0.016526
