19
Iteration:  1617
 C        -0.143703        -0.198426        -0.009365
 C         1.367514         0.082847         0.102313
 C         2.064817        -0.664733         1.250954
 C         3.612217        -0.392612         1.042560
 C         3.317929         0.432577        -0.228356
 C         3.795349         1.394338        -1.301325
 O         2.343643         2.010762        -1.367147
 C         2.112248         1.481519        -0.032631
 O         2.338109        -0.460228        -0.919523
 H        -0.414247        -1.282172         0.206526
 H        -0.576065         0.722775         0.505003
 H        -0.433701        -0.093356        -1.070962
 H         1.762153        -0.259496         2.221426
 H         1.848812        -1.720605         1.117862
 H         4.032755         0.108569         2.023485
 H         4.179370        -1.408484         0.761601
 H         4.499811         2.242002        -1.067621
 H         4.170919         1.158519        -2.298673
 H         2.049599         2.206545         0.789621
