19
Iteration:  4937charge 0 multiplicity 1
 C        -0.133508        -0.157857        -0.062995
 C         1.270493         0.117276         0.167905
 C         1.942659         0.194561         1.686503
 C         3.462209         0.267337         1.230407
 C         3.232840         0.330258        -0.203914
 C         3.981660         0.950667        -1.439461
 O         2.650752         1.480224        -1.837207
 C         2.079122         1.319770        -0.484055
 O         2.290782        -0.792927        -0.523815
 H        -0.719525        -0.815827         0.661183
 H        -0.632606         0.829812        -0.248064
 H        -0.322353        -0.611817        -1.098887
 H         1.550110         1.057597         2.162938
 H         1.576570        -0.745328         2.134390
 H         3.827566         1.307933         1.533577
 H         4.164939        -0.397270         1.778295
 H         4.858580         1.710323        -1.271001
 H         4.320390         0.156231        -2.153113
 H         1.838481         2.321474         0.032170
