19
Iteration:  2819
 C         0.019582        -0.149991        -0.268741
 C         1.423095         0.038945         0.104800
 C         2.023019        -0.425136         1.460168
 C         3.584231        -0.277334         1.113567
 C         3.260698         0.427654        -0.259461
 C         3.763108         1.283361        -1.432518
 O         2.353750         1.971599        -1.328798
 C         2.152473         1.406239        -0.026310
 O         2.270782        -0.534144        -0.840691
 H        -0.743857        -0.414986         0.590672
 H        -0.620439         0.635844        -0.695998
 H        -0.082934        -1.143308        -0.820186
 H         1.708934         0.187933         2.319678
 H         1.750259        -1.433618         1.666971
 H         4.180169         0.130368         1.895891
 H         3.903424        -1.287342         0.752387
 H         4.568997         1.941375        -1.289639
 H         3.789454         0.703003        -2.337207
 H         2.384034         2.145358         0.826230
