19
Iteration:  3731
 C        -0.121368        -0.096069        -0.132609
 C         1.311743         0.090694         0.092728
 C         1.920418         0.160515         1.561736
 C         3.464920         0.263101         1.309699
 C         3.248642         0.386018        -0.178255
 C         3.824815         0.932330        -1.410992
 O         2.641843         1.532281        -1.798157
 C         2.103240         1.299221        -0.377709
 O         2.364076        -0.819736        -0.522096
 H        -0.342154         0.168779        -1.165660
 H        -0.403537        -1.199392        -0.095605
 H        -0.615289         0.603570         0.551404
 H         1.449539         0.957841         2.118960
 H         1.616302        -0.875419         2.077849
 H         3.928329         1.148874         1.696843
 H         4.013356        -0.585588         1.650088
 H         4.623876         1.634473        -1.482288
 H         4.084063         0.161345        -2.231309
 H         2.075466         2.233462         0.119080
