19
Iteration:  3611charge 0 multiplicity 1
 C        -0.118041        -0.229512        -0.167965
 C         1.356178         0.129681         0.115423
 C         1.892666         0.193280         1.605716
 C         3.490282         0.181336         1.247637
 C         3.300055         0.285343        -0.173796
 C         3.827874         0.904388        -1.456505
 O         2.547255         1.689785        -1.640758
 C         2.147887         1.335017        -0.418533
 O         2.328884        -0.777312        -0.601887
 H        -0.731122        -0.472061         0.727888
 H        -0.465997         0.775701        -0.527562
 H        -0.104925        -0.933024        -0.996512
 H         1.486659         0.963966         2.098491
 H         1.585436        -0.773680         2.151551
 H         3.978419         1.071682         1.555253
 H         4.089769        -0.600041         1.643350
 H         4.671167         1.646763        -1.343284
 H         4.090696         0.124841        -2.282849
 H         2.168104         2.085765         0.323124
