19
Iteration:  3363
 C        -0.094343        -0.277333        -0.216086
 C         1.315007         0.120711         0.175135
 C         1.909993        -0.044358         1.569270
 C         3.472970         0.024827         1.230397
 C         3.314477         0.408086        -0.168804
 C         3.739622         0.990294        -1.575855
 O         2.597386         1.796673        -1.603372
 C         2.171203         1.417193        -0.289670
 O         2.331669        -0.663768        -0.592761
 H        -0.386789        -1.325139         0.124647
 H        -0.888100         0.386993         0.210865
 H        -0.078709        -0.251225        -1.291253
 H         1.534670         0.765471         2.238174
 H         1.865400        -1.006107         1.952041
 H         4.127647         0.675128         1.839066
 H         3.952707        -1.008331         1.317990
 H         4.719915         1.627554        -1.546656
 H         3.742513         0.112387        -2.210080
 H         2.148969         2.322106         0.305096
