19
Iteration:  3154charge 0 multiplicity 1
 C        -0.131400        -0.117986        -0.009522
 C         1.339542         0.086888         0.110973
 C         1.952300        -0.271341         1.452560
 C         3.499162        -0.093585         1.152955
 C         3.278195         0.370532        -0.226916
 C         3.910494         1.228983        -1.333289
 O         2.464307         1.809888        -1.632897
 C         2.106069         1.382408        -0.285947
 O         2.365100        -0.663903        -0.757740
 H        -0.304385        -1.133811        -0.552948
 H        -0.596007        -0.113621         1.026664
 H        -0.546752         0.739093        -0.654066
 H         1.586297         0.319032         2.329372
 H         1.855326        -1.312578         1.866989
 H         3.944499         0.602171         1.925432
 H         4.036019        -1.097187         1.223045
 H         4.658669         1.913552        -0.989060
 H         4.187185         0.663221        -2.247376
 H         2.004450         2.149104         0.473635
