19
Iteration:  4568
 C        -0.163054        -0.145765        -0.151642
 C         1.303842         0.173511         0.043931
 C         1.996230         0.229251         1.653262
 C         3.484588         0.311870         1.353675
 C         3.273630         0.397062        -0.151937
 C         3.921727         0.800691        -1.452905
 O         2.611948         1.416449        -1.850296
 C         2.084419         1.302927        -0.519390
 O         2.279609        -0.744070        -0.442694
 H        -0.331400        -1.176779        -0.541075
 H        -0.788143        -0.001699         0.781473
 H        -0.677597         0.632715        -0.819936
 H         1.499371         1.016860         2.294214
 H         1.782156        -0.726375         2.177961
 H         3.938629         1.294682         1.782414
 H         4.170125        -0.505115         1.639261
 H         4.597722         1.685851        -1.360081
 H         4.376300        -0.016025        -2.063938
 H         1.902911         2.279406        -0.015987
