19
Iteration:  4860
 C        -0.096501        -0.152908        -0.203611
 C         1.296337         0.277621         0.090925
 C         1.912980         0.120205         1.617513
 C         3.522477         0.280576         1.326960
 C         3.298000         0.436487        -0.095196
 C         3.846113         0.703986        -1.489360
 O         2.551090         1.351810        -1.768952
 C         2.116466         1.438955        -0.478124
 O         2.342362        -0.610607        -0.504803
 H        -0.114394        -1.227180        -0.457854
 H        -0.851937        -0.073659         0.652805
 H        -0.502458         0.359194        -1.154191
 H         1.757193         0.677031         2.528824
 H         1.651241        -0.871446         1.954329
 H         3.956841         1.171252         1.836158
 H         4.049548        -0.633885         1.745552
 H         4.671893         1.351382        -1.473122
 H         3.994766        -0.296141        -1.910747
 H         1.892958         2.512926        -0.082614
