19
Iteration:  3055charge 0 multiplicity 1
 C        -0.055631        -0.199189        -0.213269
 C         1.368121         0.043533         0.110998
 C         1.990902        -0.210478         1.533501
 C         3.534348        -0.130632         1.098182
 C         3.258352         0.312954        -0.254495
 C         3.760956         1.216224        -1.441048
 O         2.495189         1.908849        -1.406789
 C         2.113503         1.418367        -0.172271
 O         2.335015        -0.653254        -0.777513
 H        -0.448122        -0.065340         0.845693
 H        -0.451781         0.480452        -1.020187
 H        -0.255373        -1.338821        -0.320225
 H         1.584813         0.668230         2.108324
 H         1.459944        -1.108357         2.067946
 H         4.259343         0.504125         1.713251
 H         3.854015        -1.207913         1.064057
 H         4.584192         1.789203        -1.129810
 H         3.994002         0.654568        -2.374889
 H         2.038700         2.223062         0.546157
