19
Iteration:  1697charge 0 multiplicity 1
 C        -0.048208        -0.251642        -0.218997
 C         1.331533         0.008222         0.193978
 C         2.109687        -0.535302         1.370377
 C         3.566958        -0.398988         0.972265
 C         3.289204         0.438921        -0.266954
 C         3.730733         1.299441        -1.416700
 O         2.406770         2.088660        -1.285970
 C         2.107346         1.478431         0.064692
 O         2.279826        -0.421459        -0.880587
 H        -0.017445        -1.267574        -0.681966
 H        -0.772632        -0.336756         0.658942
 H        -0.183426         0.545718        -1.017056
 H         2.056059        -0.080809         2.308289
 H         1.763228        -1.547510         1.600826
 H         4.180655         0.139795         1.733881
 H         4.194524        -1.393582         0.886133
 H         4.526830         2.009545        -1.267306
 H         3.763919         0.837389        -2.436396
 H         1.996947         2.065228         0.991645
