19
Iteration:  3764charge 0 multiplicity 1
 C        -0.038683        -0.276841        -0.219527
 C         1.288594         0.218940         0.137207
 C         1.867917         0.176148         1.630814
 C         3.419051         0.178640         1.355347
 C         3.273140         0.425411        -0.143299
 C         3.830652         0.803869        -1.567580
 O         2.601703         1.482381        -1.825993
 C         2.230405         1.444104        -0.349734
 O         2.287234        -0.627986        -0.480663
 H        -0.490979         0.517136        -0.810033
 H         0.149773        -1.286100        -0.683124
 H        -0.457552        -0.499770         0.759012
 H         1.532524         0.968068         2.302292
 H         1.441714        -0.887185         2.049406
 H         3.934025         1.029416         1.766748
 H         3.914529        -0.737555         1.546680
 H         4.699524         1.438043        -1.634960
 H         3.884266        -0.156283        -2.205838
 H         2.264985         2.391491         0.187992
