19
Iteration:  3993
 C        -0.092904        -0.123296        -0.076607
 C         1.326297         0.224802         0.101994
 C         1.792643         0.057751         1.615526
 C         3.380788         0.327661         1.433957
 C         3.348055         0.503728        -0.141799
 C         3.844284         0.831157        -1.465536
 O         2.650140         1.263166        -1.921999
 C         2.170487         1.430233        -0.556219
 O         2.363784        -0.692929        -0.449986
 H        -0.192451        -1.139009        -0.381631
 H        -0.458784        -0.059858         0.956297
 H        -0.655157         0.464837        -0.767167
 H         1.450790         0.770489         2.265129
 H         1.370017        -0.960082         1.948635
 H         3.747729         1.294468         1.898964
 H         4.033064        -0.484662         1.714913
 H         4.622404         1.614410        -1.732712
 H         4.154241        -0.104858        -2.119675
 H         2.025593         2.534527        -0.278933
