19
Iteration:  4424
 C        -0.143913        -0.173623        -0.047236
 C         1.310348         0.191115         0.151115
 C         1.893326         0.111441         1.595948
 C         3.406690         0.183613         1.369437
 C         3.296171         0.513193        -0.130746
 C         3.959840         0.883191        -1.491048
 O         2.584827         1.345190        -1.909994
 C         2.101756         1.361909        -0.467847
 O         2.366553        -0.627731        -0.515122
 H        -0.582503        -0.477702         0.893034
 H        -0.563202         0.767734        -0.622286
 H        -0.267829        -0.917268        -0.819752
 H         1.452132         0.926232         2.239635
 H         1.500500        -0.751093         2.043962
 H         3.977655         0.860324         2.085798
 H         3.957125        -0.796101         1.567220
 H         4.643767         1.641498        -1.525103
 H         4.245479        -0.004864        -2.041081
 H         2.076855         2.503757        -0.288207
