19
Iteration:  2877
 C        -0.093263        -0.196173        -0.019546
 C         1.393374         0.045527         0.085360
 C         1.981173        -0.468777         1.401634
 C         3.496209        -0.200764         1.091837
 C         3.322977         0.330735        -0.293392
 C         3.782194         1.357277        -1.311038
 O         2.503130         1.973494        -1.475146
 C         2.110988         1.449812        -0.123973
 O         2.292326        -0.605317        -0.885360
 H        -0.179729        -1.268081         0.296307
 H        -0.568403         0.567172         0.688942
 H        -0.516801         0.089329        -0.964652
 H         1.677210         0.037461         2.303724
 H         1.591044        -1.500068         1.396917
 H         3.827323         0.507410         1.826274
 H         4.193668        -0.996014         1.116022
 H         4.615602         1.881288        -0.836513
 H         4.181541         0.937764        -2.248567
 H         2.074569         2.142425         0.701577
