19
Iteration:  1248
 C        -0.054562        -0.167390        -0.240921
 C         1.374044         0.005138         0.153486
 C         2.042101        -0.586995         1.426616
 C         3.616261        -0.343974         0.969252
 C         3.276479         0.386267        -0.283557
 C         3.639153         1.393683        -1.374121
 O         2.435134         2.163759        -1.200250
 C         2.135886         1.383435         0.048694
 O         2.309606        -0.537221        -0.938008
 H        -0.119295        -1.238572        -0.171116
 H        -0.830816         0.348743         0.285403
 H        -0.030883         0.011498        -1.289766
 H         1.894663        -0.101608         2.442180
 H         1.765105        -1.637473         1.469159
 H         4.198832        -0.036893         1.798458
 H         4.094254        -1.216735         0.509750
 H         4.595050         1.946719        -1.189655
 H         3.646036         1.047094        -2.449882
 H         2.062615         2.123748         0.913862
