19
Iteration:   930charge 0 multiplicity 1
 C        -0.130918        -0.180459        -0.090874
 C         1.336707         0.022380         0.091126
 C         2.105488        -0.633199         1.290887
 C         3.667594        -0.303403         1.086789
 C         3.247133         0.450433        -0.274633
 C         3.747769         1.381612        -1.343727
 O         2.456588         2.012408        -1.294636
 C         2.141204         1.305945         0.056915
 O         2.239616        -0.368798        -0.992710
 H        -0.144663        -1.169831        -0.650258
 H        -0.686389        -0.311432         0.849782
 H        -0.523366         0.617950        -0.757245
 H         1.690739        -0.115791         2.157787
 H         1.765678        -1.638989         1.387786
 H         4.065823         0.300460         1.932629
 H         4.205282        -1.230038         0.894743
 H         4.592860         2.169622        -1.186500
 H         3.907278         0.789719        -2.263642
 H         2.152543         1.883850         0.925240
