19
Iteration:  3919charge 0 multiplicity 1
 C        -0.076293        -0.213052        -0.227484
 C         1.255359         0.214232         0.147246
 C         1.846140         0.351504         1.674412
 C         3.385476         0.203028         1.323429
 C         3.314339         0.305893        -0.179865
 C         3.812421         0.866798        -1.577774
 O         2.627454         1.485872        -1.793620
 C         2.204005         1.366244        -0.448399
 O         2.418324        -0.800917        -0.406055
 H        -0.372079        -0.988105         0.539057
 H        -0.809243         0.584464        -0.202823
 H        -0.066325        -0.787574        -1.147297
 H         1.407013         1.308421         2.069410
 H         1.415686        -0.486558         2.346835
 H         3.924201         1.047218         1.724382
 H         3.805362        -0.667170         1.708137
 H         4.654406         1.481510        -1.574715
 H         3.944970         0.133711        -2.330539
 H         2.023890         2.358852         0.016448
