19
Iteration:  3136
 C        -0.148339        -0.115567        -0.119235
 C         1.360933         0.094166         0.052372
 C         2.029368        -0.382882         1.548582
 C         3.545172        -0.096509         1.243634
 C         3.297007         0.421451        -0.199368
 C         3.782993         1.187513        -1.481385
 O         2.550302         1.751392        -1.622517
 C         2.098792         1.415326        -0.143409
 O         2.309262        -0.578570        -0.753792
 H        -0.530689        -1.125203        -0.086693
 H        -0.707329         0.329451         0.679694
 H        -0.608067         0.282563        -0.982188
 H         1.528707         0.071783         2.506827
 H         1.625441        -1.335742         1.520492
 H         3.951265         0.675552         1.914770
 H         4.243443        -0.974907         1.221625
 H         4.455228         2.039535        -1.152527
 H         4.250693         0.705283        -2.284404
 H         2.000124         2.378235         0.355497
