19
Iteration:  2223
 C        -0.081621        -0.247448        -0.206557
 C         1.348706        -0.026084         0.094469
 C         2.047273        -0.539862         1.458887
 C         3.627600        -0.320267         0.943943
 C         3.263312         0.420141        -0.348858
 C         3.723829         1.318838        -1.375286
 O         2.463352         2.182536        -1.232355
 C         2.153036         1.413592         0.023951
 O         2.260677        -0.544790        -0.870900
 H        -0.550646        -1.192275         0.176318
 H        -0.708032         0.652873        -0.035988
 H        -0.296092        -0.333460        -1.304830
 H         1.815717         0.172056         2.351590
 H         1.814825        -1.571585         1.814968
 H         4.203166         0.243403         1.687248
 H         3.948180        -1.357544         0.781570
 H         4.546948         1.866614        -0.945219
 H         3.937704         1.124522        -2.410383
 H         2.263674         2.074765         0.945169
