19
Iteration:  1114
 C        -0.132218        -0.178627        -0.226050
 C         1.316013         0.027033         0.115541
 C         2.114359        -0.487039         1.385583
 C         3.536137        -0.362605         0.912548
 C         3.364177         0.391844        -0.354182
 C         3.755755         1.430855        -1.395393
 O         2.376628         2.194184        -1.145965
 C         2.198646         1.264499         0.057759
 O         2.293782        -0.641560        -0.849121
 H        -0.198259        -1.098153        -0.759235
 H        -0.855504        -0.217430         0.529620
 H        -0.417220         0.566155        -0.955494
 H         1.686978         0.146203         2.209345
 H         1.823294        -1.535388         1.602975
 H         4.109565         0.311964         1.553081
 H         4.074340        -1.231696         0.734942
 H         4.454336         2.168305        -1.020130
 H         3.967286         1.210655        -2.411597
 H         2.338883         1.910952         0.988899
