19
Iteration:   564
 C        -0.095725        -0.204971        -0.122681
 C         1.383970        -0.018665         0.033286
 C         2.056056        -0.489204         1.337546
 C         3.635773        -0.306445         0.965631
 C         3.254333         0.337406        -0.390218
 C         3.716590         1.428105        -1.293201
 O         2.452829         2.116792        -1.074613
 C         2.117934         1.317197         0.017732
 O         2.290436        -0.558271        -0.997601
 H        -0.403494        -1.114111         0.501762
 H        -0.569495         0.800359         0.149412
 H        -0.238391        -0.365908        -1.234227
 H         1.828452         0.241534         2.191024
 H         1.757824        -1.482380         1.646165
 H         4.333364         0.455197         1.409590
 H         4.030501        -1.298381         0.989296
 H         4.536763         2.026131        -1.040532
 H         3.726439         1.195978        -2.362960
 H         1.825477         1.948096         0.824083
