19
Iteration:   560
 C        -0.098467        -0.207899        -0.111257
 C         1.362561         0.015847         0.042439
 C         2.038094        -0.505972         1.377133
 C         3.678312        -0.335849         0.984207
 C         3.250096         0.319455        -0.389777
 C         3.744045         1.474341        -1.315525
 O         2.443711         2.162075        -1.106256
 C         2.102428         1.291981         0.016636
 O         2.299638        -0.590989        -0.993032
 H        -0.407174        -1.021624         0.486772
 H        -0.646341         0.666232         0.117433
 H        -0.344039        -0.344520        -1.136814
 H         1.774902         0.207919         2.115855
 H         1.646588        -1.545907         1.432219
 H         4.178253         0.457375         1.491004
 H         4.202171        -1.364082         0.950051
 H         4.693709         2.070797        -1.106810
 H         3.778529         1.158001        -2.345313
 H         1.852529         2.060111         0.834502
