19
Iteration:  1999
 C        -0.091886        -0.121919        -0.138034
 C         1.383412        -0.067357         0.031136
 C         2.023753        -0.536885         1.417266
 C         3.668125        -0.287435         1.027041
 C         3.207083         0.400611        -0.292096
 C         3.730660         1.430220        -1.390688
 O         2.428691         2.065288        -1.208335
 C         2.114196         1.315507        -0.048007
 O         2.320202        -0.539504        -0.955848
 H        -0.706602        -1.014975         0.228402
 H        -0.433169         0.757868         0.537654
 H        -0.241231        -0.057220        -1.249609
 H         1.774454         0.025783         2.330760
 H         1.677400        -1.591372         1.716194
 H         4.129205         0.304705         1.766911
 H         4.316192        -1.103571         0.999630
 H         4.581477         2.024484        -1.127360
 H         4.039569         0.858939        -2.293916
 H         2.001074         1.895495         0.927430
