19
Iteration:  2540
 C        -0.081737        -0.219143        -0.181882
 C         1.368938         0.004590         0.034773
 C         2.057014        -0.373610         1.446965
 C         3.600506        -0.264693         1.018222
 C         3.259315         0.311402        -0.265477
 C         3.671442         1.363133        -1.399497
 O         2.493209         2.119533        -1.231662
 C         2.072715         1.339988         0.004466
 O         2.311140        -0.585019        -0.914274
 H        -0.419743         0.055600        -1.239035
 H        -0.368279        -1.342244        -0.172474
 H        -0.630196         0.390539         0.499283
 H         2.001475         0.260742         2.351182
 H         2.004468        -1.477392         1.664767
 H         4.337475         0.212701         1.740723
 H         3.926051        -1.313523         0.837786
 H         4.734736         1.810673        -1.116465
 H         3.804472         1.026200        -2.518854
 H         1.906130         1.993580         0.892394
