19
Iteration:  3959charge 0 multiplicity 1
 C        -0.173143        -0.134381        -0.148054
 C         1.358294         0.188124         0.131913
 C         1.860201         0.201467         1.610186
 C         3.446025         0.352641         1.332802
 C         3.246945         0.362211        -0.155932
 C         3.899937         0.874097        -1.424315
 O         2.656850         1.345256        -1.841478
 C         2.087842         1.350850        -0.517243
 O         2.360111        -0.788163        -0.482484
 H        -0.299660        -1.187498        -0.085612
 H        -0.709462         0.370223         0.697230
 H        -0.609199         0.270372        -1.052321
 H         1.602687         0.997323         2.215158
 H         1.682247        -0.751073         2.171745
 H         3.837757         1.357678         1.694109
 H         4.115394        -0.436506         1.752310
 H         4.671641         1.724125        -1.293002
 H         4.309967         0.047011        -2.168246
 H         1.966789         2.426796        -0.213209
