19
Iteration:  1371charge 0 multiplicity 1
 C        -0.083897        -0.277991        -0.172616
 C         1.380390         0.072331         0.119367
 C         2.085584        -0.595201         1.399755
 C         3.577456        -0.485016         1.028926
 C         3.315715         0.476607        -0.230445
 C         3.700730         1.390403        -1.344163
 O         2.428027         2.092530        -1.299520
 C         2.172454         1.387265         0.074132
 O         2.249953        -0.371252        -1.002521
 H        -0.150598        -1.350061        -0.217506
 H        -0.667947         0.144590         0.638738
 H        -0.251278         0.208441        -1.124539
 H         1.590853        -0.103523         2.247576
 H         1.597556        -1.627482         1.385817
 H         4.119384         0.113648         1.779504
 H         4.236963        -1.357852         0.729125
 H         4.642151         1.989281        -1.212970
 H         3.691702         0.864130        -2.359603
 H         2.107632         2.074168         0.960661
