19
Iteration:  1808charge 0 multiplicity 1
 C        -0.007759        -0.259495        -0.167633
 C         1.408301         0.098065         0.129441
 C         1.980953        -0.584529         1.398196
 C         3.537159        -0.396335         1.011738
 C         3.305022         0.427277        -0.233552
 C         3.701104         1.389651        -1.471732
 O         2.407724         2.140485        -1.242120
 C         2.164348         1.422402         0.043665
 O         2.322109        -0.495063        -0.900870
 H        -0.160634        -1.346142         0.089034
 H        -0.835431         0.275039         0.293763
 H        -0.287867        -0.354854        -1.273168
 H         1.872752        -0.137078         2.333108
 H         1.634027        -1.576904         1.394516
 H         4.194490         0.101566         1.751380
 H         4.034407        -1.365336         0.665374
 H         4.534091         2.131388        -1.487144
 H         3.701331         0.863200        -2.427851
 H         2.112829         2.035676         0.927324
