19
Iteration:  3639
 C        -0.096938        -0.292346        -0.200795
 C         1.364082         0.162898         0.135665
 C         1.884800         0.119685         1.629808
 C         3.443842         0.111536         1.320351
 C         3.324720         0.388190        -0.164074
 C         3.855563         0.858088        -1.612804
 O         2.592237         1.679894        -1.737133
 C         2.170002         1.446011        -0.392104
 O         2.256768        -0.720653        -0.491455
 H        -0.272030        -1.102624         0.486411
 H        -0.713935         0.526407         0.120076
 H        -0.191009        -0.487609        -1.305973
 H         1.363290         0.965304         2.303435
 H         1.694727        -0.855146         2.041768
 H         3.956507         1.007099         1.820867
 H         3.878717        -0.914768         1.599821
 H         4.618440         1.593409        -1.476121
 H         4.160908         0.146639        -2.358233
 H         2.117377         2.334029         0.322413
