19
Iteration:  3034
 C        -0.110564        -0.228036        -0.070838
 C         1.323510         0.132941         0.086768
 C         2.038590        -0.285026         1.460302
 C         3.525544        -0.188244         1.181918
 C         3.283903         0.428874        -0.225479
 C         3.827799         1.219512        -1.378233
 O         2.498064         1.860274        -1.554779
 C         2.143436         1.396175        -0.150436
 O         2.260364        -0.583626        -0.862447
 H        -0.861476         0.329840         0.569664
 H        -0.252946        -0.156466        -1.175957
 H        -0.279629        -1.322802         0.290609
 H         1.783934         0.207194         2.485731
 H         1.629237        -1.370425         1.707801
 H         3.980606         0.608392         1.891266
 H         4.092692        -1.179956         1.296450
 H         4.681573         1.843282        -0.904697
 H         4.167290         0.755129        -2.340068
 H         2.082975         2.247974         0.488274
