19
Iteration:  4063charge 0 multiplicity 1
 C        -0.058135        -0.224589        -0.216128
 C         1.367125         0.177493         0.124360
 C         1.817231         0.344955         1.604604
 C         3.475355         0.299341         1.345250
 C         3.279613         0.314288        -0.165119
 C         3.775400         0.810862        -1.488736
 O         2.578822         1.543817        -1.826806
 C         2.183936         1.294805        -0.467753
 O         2.341738        -0.809181        -0.381718
 H        -0.176471        -1.332680        -0.066400
 H        -0.800300         0.362010         0.319255
 H        -0.120717        -0.052958        -1.311938
 H         1.480458         1.360573         2.094013
 H         1.567511        -0.435022         2.273468
 H         4.031613         1.092931         1.749100
 H         3.951006        -0.701674         1.545349
 H         4.619478         1.490633        -1.511186
 H         4.021364         0.022885        -2.147383
 H         2.160952         2.312870         0.048232
