19
Iteration:  3968
 C        -0.174530        -0.137796        -0.068626
 C         1.247967         0.215947         0.112881
 C         1.900526         0.156791         1.615112
 C         3.397240         0.374339         1.397241
 C         3.266016         0.409867        -0.220805
 C         4.013621         0.799616        -1.438166
 O         2.600990         1.315630        -1.897917
 C         2.097782         1.414130        -0.497117
 O         2.413637        -0.763831        -0.471980
 H        -0.391481        -1.179839        -0.300061
 H        -0.814315         0.250765         0.799091
 H        -0.400060         0.370670        -1.037675
 H         1.463012         0.851525         2.370893
 H         1.549302        -0.817905         1.871318
 H         3.878941         1.296827         1.831781
 H         3.990221        -0.563173         1.721807
 H         4.657451         1.738179        -1.355955
 H         4.510496         0.131870        -2.217821
 H         1.893293         2.372120        -0.084059
