19
Iteration:  1440charge 0 multiplicity 1
 C        -0.124777        -0.108897        -0.093534
 C         1.378973        -0.038082         0.017029
 C         2.015666        -0.565863         1.383283
 C         3.575254        -0.297071         0.938093
 C         3.309550         0.363964        -0.361407
 C         3.718314         1.500884        -1.323316
 O         2.420509         2.033466        -1.212101
 C         2.132850         1.267904         0.095587
 O         2.336637        -0.554738        -1.009209
 H        -0.474426        -1.144056         0.157589
 H        -0.432739         0.689431         0.606553
 H        -0.333960         0.219264        -1.153129
 H         2.024031         0.050378         2.225823
 H         1.709293        -1.521606         1.718728
 H         3.932346         0.554984         1.691595
 H         4.268085        -1.131769         1.044943
 H         4.455769         2.183375        -0.860136
 H         4.063102         1.205607        -2.271245
 H         2.147532         1.859471         0.996896
