19
Iteration:  2942charge 0 multiplicity 1
 C        -0.017558        -0.178524        -0.306824
 C         1.424060         0.119539         0.135390
 C         2.032546        -0.272236         1.591031
 C         3.587965        -0.255618         1.117393
 C         3.293510         0.345773        -0.268940
 C         3.704873         1.238444        -1.421802
 O         2.430185         2.000483        -1.400154
 C         2.120349         1.364179        -0.087268
 O         2.267525        -0.645060        -0.786397
 H        -0.039062        -0.416433        -1.379726
 H        -0.522839        -1.037307         0.249124
 H        -0.842592         0.578193        -0.187750
 H         1.607343         0.233763         2.403893
 H         1.800906        -1.325047         1.665443
 H         4.339805         0.374916         1.534657
 H         3.971208        -1.240260         1.053316
 H         4.502282         1.846376        -1.232944
 H         3.719735         0.919750        -2.430121
 H         2.098445         2.143807         0.699709
