19
Iteration:   485charge 0 multiplicity 1
 C        -0.107999        -0.190698        -0.184081
 C         1.374076        -0.000082         0.118355
 C         1.998795        -0.591654         1.400179
 C         3.628175        -0.372724         0.950019
 C         3.274016         0.427681        -0.302548
 C         3.746521         1.450440        -1.393542
 O         2.417283         2.053131        -1.246753
 C         2.143647         1.400860         0.059519
 O         2.321402        -0.499414        -0.907429
 H        -0.444846        -1.189924        -0.652736
 H        -0.715060        -0.111068         0.793234
 H        -0.429740         0.663184        -0.832075
 H         1.821179        -0.106026         2.376356
 H         1.765378        -1.689344         1.448723
 H         4.224280         0.184948         1.657910
 H         4.193033        -1.387596         0.861772
 H         4.463300         2.162154        -1.002808
 H         3.962172         1.160400        -2.399260
 H         2.199861         2.076286         0.934298
