19
Iteration:   231
 C        -0.084144        -0.130685        -0.113432
 C         1.393591        -0.089542         0.054621
 C         2.120745        -0.602033         1.287447
 C         3.601263        -0.324254         0.886682
 C         3.224497         0.376031        -0.360626
 C         3.784767         1.506284        -1.142222
 O         2.413429         2.066240        -1.194548
 C         2.112660         1.287882         0.107091
 O         2.237030        -0.488409        -1.078247
 H        -0.553606         0.867264         0.081841
 H        -0.367770        -0.598969        -1.095756
 H        -0.458921        -0.837977         0.734967
 H         1.825772         0.028101         2.188335
 H         1.925667        -1.570887         1.663212
 H         4.074606         0.321056         1.676138
 H         4.166156        -1.222770         0.752817
 H         4.374173         2.264957        -0.555657
 H         4.220633         1.361884        -2.142673
 H         2.087591         1.960875         0.911076
