19
Iteration:  3734charge 0 multiplicity 1
 C        -0.150374        -0.108888        -0.142990
 C         1.292486         0.097502         0.118612
 C         1.925844         0.160527         1.566992
 C         3.464664         0.266759         1.332655
 C         3.275029         0.392120        -0.164066
 C         3.803289         0.884547        -1.429273
 O         2.639190         1.539630        -1.794668
 C         2.126213         1.322120        -0.377056
 O         2.370963        -0.819601        -0.551028
 H        -0.295985         0.215020        -1.208330
 H        -0.273822        -1.197584        -0.161869
 H        -0.625381         0.481397         0.633139
 H         1.510591         0.962109         2.142222
 H         1.638688        -0.745351         2.023259
 H         3.909527         1.173056         1.720508
 H         3.986937        -0.615988         1.612022
 H         4.704525         1.654954        -1.476067
 H         4.086393         0.184814        -2.203356
 H         1.903077         2.268413         0.081756
