19
Iteration:  4624
 C        -0.088151        -0.293988        -0.135779
 C         1.310200         0.265213         0.052775
 C         1.856808         0.320489         1.593207
 C         3.470474         0.207704         1.399522
 C         3.303649         0.327342        -0.147897
 C         3.753885         0.718509        -1.545103
 O         2.651871         1.523593        -1.858469
 C         2.148975         1.507853        -0.454577
 O         2.365995        -0.766198        -0.409609
 H        -0.222866        -1.430774        -0.368102
 H        -0.498417        -0.142134         0.871419
 H        -0.673208         0.349370        -0.892199
 H         1.434874         1.146083         2.128390
 H         1.607004        -0.709337         2.027104
 H         3.978482         1.145113         1.870797
 H         3.862058        -0.792056         1.659536
 H         4.642814         1.416202        -1.518412
 H         3.978841        -0.145005        -2.215384
 H         2.089849         2.492247         0.068797
