19
Iteration:  2351charge 0 multiplicity 1
 C        -0.116172        -0.230537        -0.173490
 C         1.409677         0.079469         0.058519
 C         2.082563        -0.562971         1.438537
 C         3.572693        -0.402727         1.104370
 C         3.317197         0.408284        -0.273530
 C         3.679961         1.346083        -1.408460
 O         2.394157         2.021201        -1.324888
 C         2.203893         1.461630         0.028826
 O         2.292680        -0.440477        -0.900669
 H        -0.289733        -0.689582        -1.133711
 H        -0.651355        -0.941779         0.415549
 H        -0.634287         0.773035        -0.279041
 H         1.805014        -0.060816         2.326224
 H         1.722905        -1.553607         1.492728
 H         4.093221         0.134052         1.853470
 H         4.318385        -1.199881         0.863869
 H         4.486669         2.079884        -1.140262
 H         3.738183         0.851878        -2.380976
 H         2.170368         2.234229         0.788728
