19
Iteration:    90charge 0 multiplicity 1
 C        -0.153341        -0.194634        -0.056693
 C         1.364376        -0.019836         0.111918
 C         2.096524        -0.771762         1.222121
 C         3.602012        -0.497795         0.858146
 C         3.323230         0.474723        -0.293201
 C         3.841522         1.547537        -1.264550
 O         2.359335         2.016525        -1.153269
 C         2.118087         1.378890         0.127021
 O         2.302628        -0.266240        -1.055111
 H        -0.324209        -1.232934        -0.018508
 H        -0.865579         0.182590         0.700683
 H        -0.590601         0.098633        -1.043885
 H         1.738879        -0.458580         2.248648
 H         1.812909        -1.755575         1.213351
 H         4.196600         0.074195         1.654749
 H         4.181889        -1.317008         0.567406
 H         4.473453         2.337791        -0.791747
 H         4.040468         1.187130        -2.209119
 H         1.982788         1.989627         1.046596
