19
Iteration:  1634
 C        -0.090291        -0.165391        -0.052966
 C         1.412622        -0.034779        -0.011305
 C         2.033589        -0.565761         1.368662
 C         3.600323        -0.296932         0.995186
 C         3.245892         0.443912        -0.260309
 C         3.748585         1.403200        -1.317504
 O         2.439236         2.061984        -1.265990
 C         2.080840         1.317663        -0.003692
 O         2.335884        -0.492272        -0.987477
 H        -0.436891        -1.136687         0.279620
 H        -0.492998         0.424847         0.764316
 H        -0.588143         0.153747        -0.980385
 H         1.829769        -0.108211         2.429912
 H         1.829731        -1.650484         1.412136
 H         4.182517         0.281083         1.633870
 H         4.006222        -1.221525         0.814101
 H         4.541591         2.081495        -0.951775
 H         3.925206         0.867305        -2.260675
 H         1.970120         2.078650         0.784125
