19
Iteration:   824
 C        -0.139223        -0.237520        -0.168555
 C         1.381372         0.048379         0.142509
 C         1.995891        -0.617347         1.362362
 C         3.550942        -0.395314         0.945288
 C         3.272988         0.472310        -0.270836
 C         3.701219         1.459936        -1.488319
 O         2.459375         2.095409        -1.233621
 C         2.205494         1.405379         0.075641
 O         2.369747        -0.493595        -0.838991
 H        -0.416569        -1.075804         0.456149
 H        -0.860369         0.525641        -0.070584
 H        -0.325852        -0.637545        -1.158903
 H         1.741164        -0.389290         2.459668
 H         1.739189        -1.632495         1.251078
 H         4.205128        -0.059181         1.803646
 H         4.063765        -1.256165         0.585550
 H         4.462114         2.171221        -1.349307
 H         3.762735         1.129398        -2.506963
 H         2.287885         2.080777         1.013836
