19
Iteration:  4060charge 0 multiplicity 1
 C        -0.047498        -0.234747        -0.232750
 C         1.362959         0.196434         0.123110
 C         1.857112         0.361397         1.608021
 C         3.471826         0.309826         1.325297
 C         3.284300         0.277013        -0.140955
 C         3.789317         0.814643        -1.510028
 O         2.556242         1.576724        -1.825955
 C         2.171833         1.255823        -0.471517
 O         2.323497        -0.801706        -0.361408
 H        -0.175368        -1.327953        -0.171210
 H        -0.699817         0.326856         0.348093
 H        -0.163394        -0.010026        -1.279435
 H         1.513165         1.264909         2.005720
 H         1.545083        -0.472192         2.268771
 H         4.051417         1.092370         1.815668
 H         3.770222        -0.666278         1.674427
 H         4.703403         1.489134        -1.460453
 H         4.149823        -0.055125        -2.160646
 H         2.100568         2.274996         0.036312
