19
Iteration:  1369charge 0 multiplicity 1
 C        -0.088276        -0.263049        -0.160929
 C         1.388757         0.063061         0.111731
 C         2.080934        -0.590671         1.379442
 C         3.582312        -0.484998         1.022488
 C         3.311595         0.463101        -0.229210
 C         3.695341         1.406577        -1.320164
 O         2.437350         2.080808        -1.307479
 C         2.163849         1.382946         0.077499
 O         2.249450        -0.378054        -1.005267
 H        -0.090762        -1.333756        -0.243136
 H        -0.663720         0.119994         0.675446
 H        -0.302752         0.201981        -1.106123
 H         1.573541        -0.017705         2.271111
 H         1.591780        -1.633878         1.463360
 H         4.048900         0.102283         1.760728
 H         4.296693        -1.277639         0.736018
 H         4.668249         2.022085        -1.238758
 H         3.690417         0.897717        -2.381046
 H         2.129935         2.066175         0.988839
