19
Iteration:  1132
 C        -0.049748        -0.184615        -0.229759
 C         1.378519         0.036663         0.114758
 C         2.039664        -0.553134         1.408938
 C         3.682636        -0.312598         1.029749
 C         3.211235         0.340665        -0.342793
 C         3.687914         1.438235        -1.334568
 O         2.454870         2.085599        -1.179566
 C         2.169972         1.406693         0.022380
 O         2.205909        -0.557058        -0.958863
 H        -0.065028        -1.177961        -0.760031
 H        -0.696783        -0.244565         0.719777
 H        -0.437075         0.556097        -0.966406
 H         1.900917        -0.184409         2.418381
 H         1.804721        -1.691895         1.390355
 H         4.274751         0.290432         1.745984
 H         4.259284        -1.313995         0.894588
 H         4.581867         2.183104        -1.153741
 H         3.795219         1.096764        -2.436134
 H         2.108077         2.076064         0.834693
