19
Iteration:  3213
 C        -0.015598        -0.225951        -0.208044
 C         1.322723         0.105553         0.182812
 C         1.934800        -0.160847         1.556710
 C         3.520670        -0.101433         1.122798
 C         3.251244         0.429079        -0.209411
 C         3.771915         1.091227        -1.477038
 O         2.585609         1.833412        -1.645124
 C         2.111390         1.459136        -0.079640
 O         2.282769        -0.659780        -0.670719
 H        -0.306838         0.002025        -1.221363
 H         0.007547        -1.332603        -0.237275
 H        -0.864310         0.008884         0.381656
 H         1.656118         0.684583         2.304291
 H         1.810841        -1.165639         1.898393
 H         4.002224         0.630953         1.792966
 H         4.023916        -1.092109         1.188925
 H         4.653818         1.678313        -1.482052
 H         3.801133         0.383176        -2.271119
 H         2.104065         2.363055         0.533807
