19
Iteration:   512charge 0 multiplicity 1
 C        -0.065497        -0.210291        -0.085264
 C         1.366795         0.121981         0.086783
 C         2.074362        -0.668113         1.319604
 C         3.651870        -0.391292         0.995609
 C         3.275989         0.508768        -0.202660
 C         3.753208         1.291356        -1.288643
 O         2.427255         1.992387        -1.292033
 C         2.067158         1.364123         0.040793
 O         2.228090        -0.331244        -1.026723
 H        -0.078524        -1.298700         0.068240
 H        -0.799147         0.356754         0.552144
 H        -0.273643         0.072176        -1.144954
 H         2.058349        -0.309613         2.355113
 H         1.865647        -1.727322         1.100986
 H         3.987784         0.387977         1.766301
 H         4.269018        -1.217860         0.886470
 H         4.442650         2.142298        -0.994711
 H         4.105815         0.897649        -2.300649
 H         1.990243         2.032946         0.907303
