19
Iteration:  4628
 C        -0.128812        -0.284795        -0.125378
 C         1.348656         0.270391         0.076788
 C         1.854693         0.280265         1.577228
 C         3.486391         0.209012         1.379269
 C         3.247904         0.365666        -0.137569
 C         3.799881         0.697699        -1.539191
 O         2.633448         1.509769        -1.860508
 C         2.156502         1.493833        -0.461443
 O         2.380385        -0.734560        -0.421167
 H        -0.130500        -1.356054        -0.380034
 H        -0.655227        -0.157434         0.839090
 H        -0.611899         0.260156        -0.905225
 H         1.425392         1.117772         2.152113
 H         1.548700        -0.619281         2.115447
 H         3.969964         1.009721         1.960732
 H         3.923255        -0.770691         1.692552
 H         4.570464         1.398908        -1.542422
 H         3.995974        -0.139874        -2.163461
 H         2.115617         2.554585        -0.011063
