19
Iteration:  1487
 C        -0.166606        -0.260815        -0.107124
 C         1.389338         0.046755         0.198430
 C         2.099398        -0.692177         1.351395
 C         3.591127        -0.382871         0.931938
 C         3.258142         0.508653        -0.207467
 C         3.802781         1.410625        -1.281633
 O         2.469360         2.012659        -1.427167
 C         2.125589         1.428211         0.051599
 O         2.237507        -0.373754        -0.943624
 H        -0.238921        -1.368338        -0.463528
 H        -0.748549        -0.121703         0.868915
 H        -0.526335         0.508215        -0.868155
 H         1.670158        -0.233318         2.301608
 H         1.824924        -1.770288         1.321631
 H         4.100429         0.280089         1.722682
 H         4.274758        -1.283158         0.787383
 H         4.627129         2.065948        -0.994515
 H         4.010548         0.748921        -2.144257
 H         2.043582         2.364269         0.645387
