19
Iteration:  1379
 C        -0.042309        -0.299284        -0.204954
 C         1.368650         0.085743         0.126543
 C         2.066114        -0.630699         1.413157
 C         3.585816        -0.436078         1.037832
 C         3.302569         0.464024        -0.245800
 C         3.729363         1.335228        -1.444926
 O         2.401241         2.125445        -1.225396
 C         2.168613         1.435303         0.051392
 O         2.261166        -0.360131        -0.955124
 H        -0.349685        -1.343204        -0.177608
 H        -0.786211         0.202079         0.434872
 H        -0.256469         0.110475        -1.191282
 H         1.804850        -0.280305         2.518443
 H         1.823460        -1.719720         1.187914
 H         4.269672        -0.041365         1.730474
 H         3.788213        -1.481659         0.796408
 H         4.557135         2.058494        -1.157797
 H         3.874474         0.682670        -2.395084
 H         2.076103         2.237599         0.840203
