19
Iteration:  4445charge 0 multiplicity 1
 C        -0.043597        -0.202378        -0.073969
 C         1.388102         0.211845         0.067761
 C         1.825027         0.173370         1.586150
 C         3.408360         0.281008         1.318059
 C         3.233117         0.383910        -0.145327
 C         3.863202         0.722012        -1.503946
 O         2.594078         1.492865        -1.800006
 C         2.130794         1.466839        -0.420931
 O         2.382392        -0.734689        -0.520950
 H        -0.399009        -0.599571         0.881006
 H        -0.841347         0.520977        -0.539726
 H        -0.120242        -1.029244        -0.760760
 H         1.454079         1.064284         2.222696
 H         1.536672        -0.729545         2.092142
 H         4.053123         1.075282         1.670980
 H         3.871875        -0.658419         1.719242
 H         4.609507         1.474191        -1.408670
 H         4.141079        -0.071645        -2.188305
 H         1.964925         2.467817         0.000406
