19
Iteration:  2141charge 0 multiplicity 1
 C        -0.115254        -0.207529        -0.148003
 C         1.345161         0.053748         0.086329
 C         2.055681        -0.629102         1.343167
 C         3.670457        -0.279726         1.025259
 C         3.250889         0.463681        -0.265137
 C         3.753502         1.315165        -1.322587
 O         2.448839         1.976100        -1.329958
 C         2.139199         1.461245         0.017761
 O         2.249663        -0.433530        -0.872612
 H        -0.330794        -1.314719        -0.166478
 H        -0.609204         0.158347         0.767585
 H        -0.334733         0.325710        -1.109568
 H         1.802021        -0.359652         2.301641
 H         1.837892        -1.683741         1.174656
 H         4.140405         0.240790         1.841735
 H         4.174130        -1.211257         0.938569
 H         4.542591         2.103578        -1.304835
 H         3.754510         0.733210        -2.253835
 H         2.195310         2.308295         0.704822
