19
Iteration:  1074charge 0 multiplicity 1
 C        -0.078393        -0.174015        -0.125818
 C         1.398666        -0.001818         0.059032
 C         2.078469        -0.599702         1.322985
 C         3.577702        -0.373407         0.996110
 C         3.258296         0.437021        -0.244695
 C         3.776817         1.385637        -1.334313
 O         2.408706         2.028102        -1.221100
 C         2.141661         1.379520         0.018820
 O         2.260474        -0.377876        -0.977702
 H        -0.181047        -1.315371        -0.056847
 H        -0.749064         0.248331         0.660692
 H        -0.404537         0.148601        -1.152527
 H         2.002955        -0.131869         2.311319
 H         1.882714        -1.603833         1.423367
 H         4.071966         0.193107         1.842912
 H         4.024054        -1.376880         0.744302
 H         4.532408         2.204698        -1.109637
 H         3.993700         0.708178        -2.184268
 H         1.825893         1.997276         0.887456
