19
Iteration:  3864
 C        -0.167667        -0.167862        -0.141696
 C         1.276369         0.210419         0.166981
 C         1.892600         0.132609         1.593493
 C         3.453154         0.307629         1.376982
 C         3.279169         0.425524        -0.209167
 C         4.031939         0.806048        -1.468964
 O         2.580810         1.403595        -1.894222
 C         2.148217         1.341070        -0.438107
 O         2.287617        -0.683719        -0.470639
 H        -0.578538        -0.228093         0.894998
 H        -0.533641         0.645642        -0.773425
 H        -0.207786        -1.107969        -0.674301
 H         1.356125         0.746571         2.360176
 H         1.655807        -1.000534         1.866360
 H         3.765608         1.215679         1.874751
 H         4.050248        -0.447523         1.767962
 H         4.688143         1.622514        -1.347867
 H         4.336244         0.117332        -2.219210
 H         2.157268         2.334072         0.020158
