19
Iteration:  1683
 C        -0.039384        -0.259231        -0.261210
 C         1.376658         0.152843         0.134990
 C         2.078226        -0.528499         1.461979
 C         3.669110        -0.328053         0.940589
 C         3.233524         0.372070        -0.317033
 C         3.679041         1.387289        -1.398170
 O         2.448941         2.101036        -1.177536
 C         2.158713         1.392076         0.021888
 O         2.214256        -0.569403        -0.869149
 H         0.053062        -1.293626        -0.699933
 H        -0.852355        -0.282785         0.527177
 H        -0.537723         0.359428        -1.007389
 H         1.713456         0.052736         2.371217
 H         1.775636        -1.601734         1.496398
 H         4.225662         0.408823         1.660016
 H         4.179297        -1.393903         0.663144
 H         4.620243         2.014734        -1.136907
 H         3.751984         0.872835        -2.389990
 H         2.132938         2.206434         0.768332
