19
Iteration:  3438
 C        -0.118988        -0.132011        -0.068940
 C         1.362022         0.174293         0.093572
 C         1.964214        -0.117401         1.563533
 C         3.487692         0.026628         1.324541
 C         3.293948         0.436683        -0.122212
 C         3.809440         1.062296        -1.425029
 O         2.535234         1.536898        -1.797681
 C         2.082132         1.425142        -0.395743
 O         2.359611        -0.617965        -0.627642
 H        -0.277983        -0.786528        -0.963221
 H        -0.605975        -0.587449         0.798372
 H        -0.480218         0.806341        -0.343351
 H         1.635000         0.423551         2.523308
 H         1.709684        -1.280779         1.540210
 H         3.995643         0.527890         2.109557
 H         4.077869        -0.885942         1.169391
 H         4.501432         1.844464        -1.119443
 H         4.167646         0.352093        -2.120975
 H         1.944107         2.466934         0.060641
