19
Iteration:   416charge 0 multiplicity 1
 C        -0.091505        -0.271872        -0.163249
 C         1.354961         0.081248         0.188525
 C         2.096640        -0.644783         1.408222
 C         3.564145        -0.352850         1.035423
 C         3.220974         0.459441        -0.243384
 C         3.768763         1.363848        -1.360073
 O         2.452851         2.077350        -1.331697
 C         2.147856         1.462358         0.024070
 O         2.247043        -0.467768        -0.977324
 H         0.041440        -0.922917        -1.051934
 H        -0.579359        -0.768548         0.673822
 H        -0.492592         0.722172        -0.393132
 H         1.699811        -0.349583         2.397670
 H         1.847256        -1.702471         1.141699
 H         4.211132         0.274003         1.780864
 H         4.202644        -1.289089         0.801304
 H         4.581058         2.093177        -1.096636
 H         3.967756         0.838441        -2.323954
 H         2.121337         2.296060         0.834190
