19
Iteration:  2187
 C        -0.124451        -0.077189        -0.102682
 C         1.402836         0.011194        -0.013663
 C         2.039859        -0.559721         1.388477
 C         3.581711        -0.288107         1.031171
 C         3.358300         0.398231        -0.294644
 C         3.736508         1.448236        -1.333453
 O         2.351204         1.969257        -1.266089
 C         2.141468         1.286156         0.008175
 O         2.314435        -0.553951        -0.967594
 H        -0.474936        -0.790160         0.674531
 H        -0.395606         0.905912         0.384619
 H        -0.398494        -0.215276        -1.262412
 H         1.622140         0.036202         2.183163
 H         1.930645        -1.610413         1.580440
 H         4.181395         0.312214         1.632076
 H         4.136646        -1.251634         1.004937
 H         4.396345         2.095598        -0.687545
 H         4.138538         1.306431        -2.354852
 H         2.121018         2.039440         0.869628
