19
Iteration:   315
 C        -0.083339        -0.255727        -0.275186
 C         1.379907         0.020924         0.118511
 C         2.035076        -0.639025         1.374403
 C         3.611075        -0.404160         0.970055
 C         3.294552         0.399214        -0.296178
 C         3.708078         1.435790        -1.443780
 O         2.411248         2.122377        -1.162881
 C         2.191575         1.439322         0.088238
 O         2.267207        -0.457414        -0.858304
 H        -0.605840        -1.009152         0.239236
 H        -0.645036         0.659071        -0.240582
 H        -0.028954        -0.555555        -1.295071
 H         1.878978        -0.108509         2.330934
 H         1.699892        -1.644000         1.444038
 H         4.110034         0.154751         1.824953
 H         4.194790        -1.260936         0.856136
 H         4.587209         2.075599        -1.256519
 H         3.642857         1.031802        -2.490717
 H         2.212062         2.173220         0.994563
