19
Iteration:  4465
 C        -0.141613        -0.289527        -0.165839
 C         1.331560         0.148213         0.148429
 C         1.902201         0.282445         1.567174
 C         3.461110         0.324774         1.371401
 C         3.314826         0.304003        -0.167713
 C         3.841742         0.860808        -1.579106
 O         2.658637         1.606354        -1.813870
 C         2.210405         1.280799        -0.418275
 O         2.230244        -0.767888        -0.437675
 H        -0.794171        -0.703944         0.625235
 H        -0.801011         0.556400        -0.527367
 H        -0.215993        -0.972345        -0.979529
 H         1.652825         1.201462         2.237574
 H         1.647560        -0.664961         2.123536
 H         3.803494         1.224824         1.765573
 H         4.023571        -0.487788         1.870835
 H         4.888313         1.454810        -1.562558
 H         3.914347         0.031366        -2.309264
 H         2.169025         2.090432         0.197899
