19
Iteration:  3197charge 0 multiplicity 1
 C        -0.155783        -0.320954        -0.168911
 C         1.344781         0.137333         0.109385
 C         2.016686        -0.120329         1.598696
 C         3.526724        -0.094636         1.220675
 C         3.274261         0.340141        -0.275131
 C         3.845594         1.085138        -1.440752
 O         2.506101         1.882238        -1.531199
 C         2.154646         1.409204        -0.273511
 O         2.269278        -0.624083        -0.724176
 H        -0.125930        -0.292938        -1.288466
 H        -0.373357        -1.309614         0.271628
 H        -0.753291         0.537013         0.261533
 H         1.768970         0.689054         2.263106
 H         1.531035        -1.077588         1.935230
 H         4.188326         0.561909         1.821903
 H         3.985055        -1.094124         1.189085
 H         4.597408         1.868228        -1.123055
 H         4.115406         0.568266        -2.423630
 H         2.123128         2.285684         0.424023
