19
Iteration:  4949charge 0 multiplicity 1
 C        -0.164506        -0.116691        -0.055880
 C         1.345816         0.143142         0.160514
 C         1.867644         0.098102         1.631536
 C         3.405733         0.298646         1.326700
 C         3.262231         0.390454        -0.269652
 C         4.000324         0.884808        -1.479279
 O         2.634024         1.478926        -1.937364
 C         2.069947         1.302749        -0.432599
 O         2.321988        -0.725860        -0.457023
 H        -0.567677        -0.663980         0.905335
 H        -0.778289         0.785798        -0.174771
 H        -0.159779        -0.839784        -0.922021
 H         1.531201         0.714342         2.457484
 H         1.831425        -0.943825         2.061549
 H         3.911003         1.254342         1.734725
 H         3.939881        -0.620179         1.599304
 H         4.730531         1.695203        -1.129619
 H         4.400227         0.229834        -2.270265
 H         1.969182         2.405275        -0.045129
