19
Iteration:   158charge 0 multiplicity 1
 C        -0.169674        -0.261226        -0.230294
 C         1.386042         0.016613         0.030599
 C         2.176200        -0.619731         1.288514
 C         3.694113        -0.363557         0.945892
 C         3.260276         0.360814        -0.321240
 C         3.717202         1.447243        -1.342662
 O         2.417272         2.155495        -1.060025
 C         2.178727         1.323772         0.187829
 O         2.165844        -0.377240        -0.994964
 H        -0.102833        -0.411186        -1.355958
 H        -0.590700        -1.167089         0.222139
 H        -0.755303         0.620558         0.033947
 H         1.652761        -0.362734         2.233183
 H         2.115700        -1.748568         1.269830
 H         4.335066         0.183378         1.656824
 H         4.161428        -1.431480         0.786464
 H         4.556052         2.028727        -0.901183
 H         3.609311         1.077178        -2.360530
 H         2.315212         2.030340         1.089820
