19
Iteration:  4642charge 0 multiplicity 1
 C        -0.113876        -0.203485        -0.104457
 C         1.287439         0.186593         0.185198
 C         1.878874         0.179804         1.623112
 C         3.412759         0.235477         1.332296
 C         3.329751         0.499783        -0.165321
 C         3.949876         0.735785        -1.488925
 O         2.571635         1.414966        -1.857602
 C         2.166426         1.383493        -0.478686
 O         2.311503        -0.618684        -0.475103
 H         0.002920        -1.234543        -0.263589
 H        -0.904353        -0.147449         0.649640
 H        -0.477814         0.196842        -1.034624
 H         1.708891         1.216709         2.094238
 H         1.454447        -0.670218         2.113334
 H         3.914494         1.036470         1.783236
 H         3.867625        -0.740323         1.373005
 H         4.917186         1.345794        -1.606245
 H         4.003285        -0.208515        -2.087177
 H         1.999456         2.342754        -0.045010
