19
Iteration:  1265charge 0 multiplicity 1
 C         0.011193        -0.272403        -0.238178
 C         1.379381         0.041396         0.106859
 C         2.041221        -0.644686         1.375827
 C         3.539569        -0.448652         0.996029
 C         3.276778         0.508786        -0.285155
 C         3.708996         1.389320        -1.491666
 O         2.413527         2.113455        -1.206514
 C         2.167615         1.440237         0.084079
 O         2.277975        -0.421461        -0.829500
 H        -0.315941        -1.356157        -0.368856
 H        -0.594341         0.244940         0.566125
 H        -0.278819         0.345424        -1.150793
 H         1.704827        -0.307935         2.381493
 H         1.786750        -1.714118         1.327980
 H         4.203937         0.176061         1.683537
 H         3.942474        -1.487203         1.020949
 H         4.577641         2.099267        -1.512101
 H         3.762573         0.789726        -2.356959
 H         2.194821         2.086791         0.911195
