19
Iteration:  3658
 C        -0.097908        -0.197900        -0.142857
 C         1.299412         0.205555         0.140051
 C         1.909683         0.046039         1.600900
 C         3.444845         0.109869         1.323960
 C         3.259273         0.439161        -0.176603
 C         3.830852         0.867686        -1.458978
 O         2.609000         1.545939        -1.829444
 C         2.098051         1.433972        -0.375023
 O         2.382839        -0.645985        -0.557316
 H        -0.028762        -1.317196         0.018631
 H        -0.827209         0.138519         0.609193
 H        -0.280261         0.101343        -1.173836
 H         1.633371         0.846279         2.294302
 H         1.534258        -0.842085         2.009287
 H         4.025758         0.824033         1.933469
 H         3.976405        -0.829148         1.424652
 H         4.790883         1.479904        -1.483721
 H         3.981193        -0.029336        -2.041373
 H         1.945548         2.466912         0.146142
