19
Iteration:  4178charge 0 multiplicity 1
 C        -0.031641        -0.235709        -0.202085
 C         1.286358         0.182745         0.171689
 C         1.781523         0.337677         1.579957
 C         3.504949         0.229629         1.302087
 C         3.304577         0.361057        -0.166726
 C         3.826285         0.832690        -1.576950
 O         2.605267         1.476317        -1.791672
 C         2.147569         1.362422        -0.402701
 O         2.355621        -0.750260        -0.392318
 H        -0.466001        -1.129921         0.340728
 H        -0.726727         0.662579        -0.000517
 H        -0.083032        -0.422573        -1.295586
 H         1.335143         1.250141         2.070937
 H         1.432328        -0.611617         2.196851
 H         4.189666         0.964152         1.884571
 H         3.858400        -0.803603         1.430372
 H         4.659990         1.512914        -1.587413
 H         4.101519        -0.056646        -2.211502
 H         2.042555         2.254522         0.146513
