19
Iteration:  1971charge 0 multiplicity 1
 C        -0.102711        -0.188825        -0.268533
 C         1.398765         0.062498         0.074419
 C         2.109870        -0.408662         1.406919
 C         3.625620        -0.371367         0.999279
 C         3.214689         0.335572        -0.336094
 C         3.665695         1.417600        -1.339328
 O         2.367719         2.085542        -1.170961
 C         2.215284         1.376490         0.034727
 O         2.272631        -0.608578        -0.924467
 H        -0.352650        -1.179589         0.007852
 H        -0.737765         0.577574         0.120093
 H        -0.092473        -0.297341        -1.353266
 H         1.990767         0.300621         2.282220
 H         1.809473        -1.377062         1.779523
 H         4.296792         0.203178         1.738388
 H         4.124502        -1.428075         0.920075
 H         4.556536         2.031671        -0.986972
 H         3.984092         1.013358        -2.297465
 H         2.187314         1.951574         0.954069
