19
Iteration:  3483charge 0 multiplicity 1
 C        -0.059122        -0.275903        -0.191331
 C         1.322230         0.107827         0.112235
 C         1.941081         0.103204         1.586201
 C         3.488207         0.132568         1.301434
 C         3.244682         0.281187        -0.247228
 C         3.822829         0.923748        -1.566883
 O         2.577705         1.800312        -1.631440
 C         2.167414         1.375942        -0.283958
 O         2.284096        -0.710906        -0.601408
 H        -0.430439        -0.189759        -1.220148
 H        -0.137286        -1.359904         0.033179
 H        -0.768775         0.203806         0.410929
 H         1.457128         0.991958         2.163455
 H         1.624103        -0.875760         2.002605
 H         4.105353         0.922719         1.746763
 H         3.888963        -0.824181         1.694415
 H         4.657721         1.581880        -1.297199
 H         3.966259         0.294790        -2.371751
 H         2.270291         2.134688         0.526268
