19
Iteration:  2122charge 0 multiplicity 1
 C        -0.079651        -0.216936        -0.158720
 C         1.385312         0.060596         0.141515
 C         2.084055        -0.508710         1.413678
 C         3.535902        -0.309589         1.059788
 C         3.260817         0.383433        -0.297748
 C         3.742026         1.275590        -1.427651
 O         2.437451         2.087786        -1.255356
 C         2.190971         1.364035         0.032945
 O         2.278290        -0.474120        -0.969019
 H        -0.030982        -1.274512        -0.454791
 H        -0.824334        -0.393603         0.679062
 H        -0.513517         0.515739        -0.918103
 H         1.846326         0.156221         2.275441
 H         1.810611        -1.548601         1.503264
 H         3.976033         0.408893         1.676104
 H         4.148917        -1.190848         0.827540
 H         4.437480         2.020050        -1.106920
 H         3.864469         0.885866        -2.424037
 H         1.947555         2.130758         0.860910
