19
Iteration:   562charge 0 multiplicity 1
 C        -0.097600        -0.206237        -0.116544
 C         1.373056        -0.001066         0.038009
 C         2.044996        -0.499480         1.357236
 C         3.660127        -0.319228         0.977484
 C         3.250042         0.328714        -0.393095
 C         3.732574         1.452117        -1.303344
 O         2.448130         2.138549        -1.088937
 C         2.110786         1.303020         0.017405
 O         2.295463        -0.575059        -0.995246
 H        -0.396127        -1.073243         0.499791
 H        -0.603345         0.737035         0.125426
 H        -0.286394        -0.348711        -1.183549
 H         1.805761         0.236635         2.148680
 H         1.699609        -1.501740         1.529279
 H         4.252782         0.454032         1.426440
 H         4.113806        -1.347723         0.974006
 H         4.603454         2.038670        -1.087562
 H         3.744831         1.187426        -2.331838
 H         1.827679         2.011782         0.816699
