19
Iteration:  1530charge 0 multiplicity 1
 C        -0.033633        -0.257504        -0.138299
 C         1.355745        -0.004334         0.093079
 C         1.994010        -0.502723         1.373631
 C         3.570837        -0.333277         1.015365
 C         3.306718         0.312371        -0.358646
 C         3.649474         1.396551        -1.422699
 O         2.494025         2.256727        -1.189191
 C         2.176159         1.378795         0.039746
 O         2.291085        -0.583311        -0.928980
 H        -0.151575        -1.335498        -0.582140
 H        -0.877986        -0.259358         0.631468
 H        -0.465661         0.382705        -0.960133
 H         1.850810         0.183859         2.233189
 H         1.663539        -1.454170         1.779577
 H         4.150081         0.307412         1.847697
 H         4.170075        -1.340441         1.007304
 H         4.551182         2.015840        -1.340197
 H         3.585506         1.023252        -2.450105
 H         2.278557         1.935487         0.991990
