19
Iteration:  4316
 C        -0.000438        -0.263746        -0.155150
 C         1.344373         0.284131         0.130952
 C         1.878055         0.238933         1.669396
 C         3.407591         0.220909         1.397766
 C         3.226306         0.394520        -0.140796
 C         3.878980         0.743644        -1.521017
 O         2.609672         1.434637        -1.867212
 C         2.162646         1.386233        -0.469540
 O         2.256665        -0.625999        -0.480493
 H         0.190785        -1.308545        -0.318409
 H        -0.822516        -0.192405         0.651205
 H        -0.414936         0.070968        -1.101843
 H         1.513357         1.071501         2.275107
 H         1.627657        -0.704985         2.045302
 H         3.751282         1.127304         1.968525
 H         3.935991        -0.757578         1.582901
 H         4.864426         1.459272        -1.690928
 H         4.023044        -0.171904        -2.173143
 H         2.247416         2.500588        -0.123822
