19
Iteration:  3746charge 0 multiplicity 1
 C        -0.154689        -0.182276        -0.177756
 C         1.361705         0.168792         0.137684
 C         1.896388         0.144273         1.624144
 C         3.457403         0.249516         1.367589
 C         3.323107         0.363865        -0.147604
 C         3.891513         0.762294        -1.543037
 O         2.556210         1.563358        -1.757286
 C         2.127761         1.405033        -0.416741
 O         2.362779        -0.726656        -0.573746
 H        -0.550138         0.394632        -1.064751
 H        -0.276508        -1.248607        -0.340920
 H        -0.965865        -0.054211         0.554660
 H         1.590730         1.030230         2.189523
 H         1.668554        -0.677763         2.163087
 H         3.903312         1.106452         1.899551
 H         4.007770        -0.636024         1.724930
 H         4.754991         1.526810        -1.313767
 H         4.064709        -0.063118        -2.172058
 H         1.815578         2.380068         0.012312
