19
Iteration:  3884
 C        -0.100549        -0.220313        -0.172853
 C         1.364596         0.217600         0.121142
 C         1.889019         0.142623         1.657821
 C         3.421933         0.253377         1.350311
 C         3.236963         0.447383        -0.123667
 C         3.821132         0.740312        -1.444935
 O         2.646747         1.393539        -1.834503
 C         2.140537         1.484997        -0.446404
 O         2.342023        -0.655381        -0.524572
 H        -0.564491        -0.545075         0.718744
 H        -0.622947         0.577826        -0.746663
 H         0.072650        -0.974077        -0.906366
 H         1.595272         0.960174         2.291688
 H         1.684969        -0.860843         2.238146
 H         3.967620         1.143790         1.705830
 H         3.980295        -0.628602         1.589425
 H         4.599808         1.411386        -1.585606
 H         3.885354        -0.188457        -2.081583
 H         1.850757         2.585751        -0.283409
