19
Iteration:  4788charge 0 multiplicity 1
 C        -0.130789        -0.174648        -0.075414
 C         1.385866         0.144784         0.087822
 C         1.870052         0.271120         1.546506
 C         3.449372         0.177687         1.314309
 C         3.312816         0.436747        -0.113220
 C         3.919334         0.834210        -1.414026
 O         2.582986         1.434249        -1.797957
 C         2.126892         1.337896        -0.501740
 O         2.311118        -0.712328        -0.534611
 H        -0.613542        -0.969388         0.554128
 H        -0.677604         0.661612         0.256615
 H        -0.436218        -0.345416        -1.093521
 H         1.453933         1.169052         2.047776
 H         1.520778        -0.588564         2.213126
 H         4.013281         1.013226         1.784548
 H         3.993887        -0.742654         1.364687
 H         4.681780         1.722326        -1.273832
 H         4.190901         0.014660        -2.127976
 H         1.919235         2.259748        -0.048110
