19
Iteration:   350
 C        -0.081571        -0.150469        -0.182523
 C         1.394661        -0.046076         0.037975
 C         2.115970        -0.544490         1.355192
 C         3.638714        -0.353744         1.008036
 C         3.244894         0.300173        -0.354930
 C         3.736288         1.473077        -1.268845
 O         2.414670         2.100682        -1.170196
 C         2.084473         1.377887        -0.019264
 O         2.280862        -0.577339        -0.952724
 H        -0.510627        -1.163990        -0.225077
 H        -0.573028         0.388257         0.643058
 H        -0.310151         0.455877        -1.101785
 H         1.863022         0.229491         2.138255
 H         1.793482        -1.520442         1.727667
 H         3.833232         0.564254         1.673438
 H         4.299701        -1.212244         0.892605
 H         4.542662         2.032641        -0.806485
 H         4.058595         1.263812        -2.307012
 H         1.819683         2.011427         0.915596
