19
Iteration:  2471charge 0 multiplicity 1
 C        -0.125574        -0.183178        -0.105359
 C         1.360157         0.068510         0.108770
 C         2.092315        -0.647609         1.354812
 C         3.564001        -0.290648         1.075453
 C         3.298910         0.503508        -0.241646
 C         3.799816         1.332895        -1.375573
 O         2.422014         1.892663        -1.435343
 C         2.133922         1.439166         0.028693
 O         2.297996        -0.423444        -0.847495
 H        -0.631024         0.715743        -0.448939
 H        -0.318836        -0.833035        -0.900865
 H        -0.697736        -0.432944         0.821827
 H         1.631598         0.051361         2.172707
 H         1.698921        -1.627436         1.419121
 H         4.181203         0.220232         1.804989
 H         4.207309        -1.251424         0.778542
 H         4.615423         2.011746        -1.133578
 H         3.962475         0.852509        -2.338387
 H         1.896450         2.219975         0.701747
