19
Iteration:  3026
 C        -0.185235        -0.253953        -0.058223
 C         1.302942         0.139833         0.184133
 C         2.027209        -0.385371         1.474847
 C         3.503092        -0.110731         1.157992
 C         3.274590         0.415068        -0.218269
 C         3.842632         1.259214        -1.422361
 O         2.544240         1.801051        -1.544508
 C         2.160840         1.437919        -0.181269
 O         2.294917        -0.553150        -0.865583
 H        -0.833258         0.522976         0.367713
 H        -0.360635        -0.383685        -1.078847
 H        -0.275870        -1.163783         0.483997
 H         1.601415         0.169519         2.376861
 H         1.756688        -1.409713         1.377818
 H         4.039763         0.471338         1.897488
 H         3.963374        -1.143180         1.089169
 H         4.673032         1.958014        -0.887157
 H         4.244367         0.763550        -2.311053
 H         2.198785         2.326195         0.488416
