19
Iteration:  3641charge 0 multiplicity 1
 C        -0.087642        -0.298447        -0.190368
 C         1.370801         0.171948         0.124191
 C         1.878358         0.120341         1.642153
 C         3.455703         0.109537         1.321131
 C         3.315525         0.392400        -0.151549
 C         3.859465         0.865992        -1.589434
 O         2.585812         1.673171        -1.741127
 C         2.173314         1.442879        -0.412647
 O         2.255906        -0.705530        -0.491976
 H        -0.326829        -1.203544         0.419307
 H        -0.708899         0.560632         0.153763
 H        -0.220874        -0.422505        -1.297795
 H         1.387984         0.936045         2.328000
 H         1.653253        -0.937255         2.031512
 H         3.949545         0.983884         1.819097
 H         3.862821        -0.924186         1.548790
 H         4.657471         1.593450        -1.518806
 H         4.124484         0.068452        -2.417375
 H         2.117913         2.298240         0.232770
