19
Iteration:   778
 C        -0.130854        -0.144906        -0.128079
 C         1.319189        -0.024917         0.060356
 C         2.096391        -0.583323         1.362089
 C         3.623968        -0.218892         0.904142
 C         3.315475         0.355632        -0.366479
 C         3.795433         1.428100        -1.241163
 O         2.378284         2.046513        -1.168924
 C         2.139255         1.274353        -0.004764
 O         2.271405        -0.530078        -0.979771
 H        -0.719785        -0.975949         0.331307
 H        -0.457128         0.845022         0.303715
 H        -0.480713         0.012388        -1.156756
 H         1.764401        -0.141910         2.347529
 H         1.885019        -1.671383         1.515620
 H         4.125553         0.517935         1.560141
 H         4.406929        -1.023401         0.980679
 H         4.452417         2.043806        -0.695662
 H         4.154826         1.250189        -2.231015
 H         2.109735         1.948248         0.879160
