19
Iteration:   309charge 0 multiplicity 1
 C        -0.031325        -0.250758        -0.245502
 C         1.373266         0.051383         0.136217
 C         2.061861        -0.665230         1.357900
 C         3.607279        -0.439965         1.037038
 C         3.335698         0.471980        -0.293568
 C         3.660667         1.365468        -1.446385
 O         2.433364         2.117702        -1.182066
 C         2.155336         1.433739         0.141112
 O         2.263945        -0.424161        -0.937773
 H        -0.734108        -0.973714         0.322292
 H        -0.769192         0.599252        -0.397095
 H        -0.041386        -0.665783        -1.311443
 H         2.016361        -0.055815         2.285832
 H         1.606450        -1.689368         1.518845
 H         3.954101         0.244916         1.788423
 H         4.150044        -1.446582         0.902934
 H         4.505267         2.059721        -1.283656
 H         3.694395         1.133734        -2.502264
 H         2.056678         2.210466         0.852736
