19
Iteration:  2671
 C        -0.028696        -0.246252        -0.277676
 C         1.373745         0.062562         0.168348
 C         2.068270        -0.456398         1.456995
 C         3.588206        -0.373959         0.945807
 C         3.295033         0.432187        -0.269304
 C         3.688093         1.277264        -1.450336
 O         2.436237         2.083089        -1.234420
 C         2.132618         1.443244        -0.015563
 O         2.278666        -0.488828        -0.840716
 H        -0.252156         0.037520        -1.298391
 H        -0.259025        -1.298276         0.081229
 H        -0.825275         0.118206         0.315997
 H         1.803379        -0.014996         2.474255
 H         1.677111        -1.549868         1.607587
 H         4.180175         0.262669         1.730044
 H         4.044196        -1.392469         0.808272
 H         4.454904         1.928494        -1.146956
 H         3.879003         0.745024        -2.413562
 H         1.999331         2.106489         0.840261
