19
Iteration:    92
 C        -0.155157        -0.186739        -0.049979
 C         1.352678        -0.021880         0.100755
 C         2.090456        -0.770038         1.220467
 C         3.599761        -0.497176         0.849984
 C         3.339255         0.483866        -0.283749
 C         3.849399         1.559516        -1.244682
 O         2.346176         2.012853        -1.152864
 C         2.132416         1.385942         0.116035
 O         2.303660        -0.292484        -1.060602
 H        -0.359726        -1.267749        -0.076806
 H        -0.824090         0.153041         0.759987
 H        -0.628235         0.141255        -0.991025
 H         1.744712        -0.415510         2.249088
 H         1.773012        -1.811486         1.260659
 H         4.159495         0.078681         1.656356
 H         4.241578        -1.346829         0.533915
 H         4.505694         2.396639        -0.847986
 H         4.065205         1.180560        -2.237041
 H         1.966065         2.038793         1.093253
