19
Iteration:  2624charge 0 multiplicity 1
 C        -0.136122        -0.160162        -0.112966
 C         1.340516        -0.058139         0.018604
 C         2.092795        -0.515303         1.402514
 C         3.582701        -0.231654         1.070090
 C         3.296962         0.329890        -0.343130
 C         3.789932         1.386501        -1.348440
 O         2.403957         2.052989        -1.257098
 C         2.106231         1.362252         0.005195
 O         2.342273        -0.540199        -0.934714
 H        -0.410144        -0.399447        -1.155766
 H        -0.671081        -0.679311         0.652128
 H        -0.544922         0.832941        -0.022264
 H         1.701240        -0.026148         2.333950
 H         1.885619        -1.541781         1.603657
 H         4.226988         0.463226         1.563902
 H         4.175619        -1.214523         0.898228
 H         4.652133         2.075556        -1.126098
 H         3.764599         1.028716        -2.360551
 H         1.951686         1.997815         0.871625
