19
Iteration:   931charge 0 multiplicity 1
 C        -0.133893        -0.178003        -0.099506
 C         1.332711         0.017024         0.088564
 C         2.110010        -0.638032         1.290687
 C         3.671804        -0.303280         1.088854
 C         3.252382         0.443573        -0.276629
 C         3.747546         1.384116        -1.345590
 O         2.460358         2.004990        -1.297673
 C         2.140966         1.315245         0.069048
 O         2.232048        -0.360805        -0.985313
 H        -0.128956        -1.180933        -0.649943
 H        -0.673007        -0.323413         0.843367
 H        -0.549067         0.613472        -0.773910
 H         1.689014        -0.077878         2.166648
 H         1.769176        -1.620456         1.361044
 H         4.085087         0.296679         1.953729
 H         4.217981        -1.209656         0.870672
 H         4.584286         2.182216        -1.201160
 H         3.880293         0.776593        -2.251361
 H         2.133234         1.861561         0.914613
