19
Iteration:  1564
 C        -0.140806        -0.144740        -0.211630
 C         1.390088         0.031254         0.031406
 C         2.117275        -0.502886         1.436400
 C         3.665875        -0.326204         0.947631
 C         3.272478         0.326947        -0.274727
 C         3.654757         1.384258        -1.322277
 O         2.449692         2.131573        -1.204101
 C         2.072120         1.304284         0.046343
 O         2.327572        -0.571944        -0.946940
 H        -0.364954        -1.267722        -0.119787
 H        -0.693891         0.481151         0.583507
 H        -0.357677         0.230871        -1.231292
 H         1.831778         0.213790         2.204137
 H         1.842088        -1.545673         1.693887
 H         4.075924         0.355343         1.745922
 H         4.280022        -1.302967         0.776516
 H         4.428681         2.102365        -1.122138
 H         3.706868         1.024511        -2.379203
 H         1.981544         1.984173         0.921513
