19
Iteration:  1442
 C        -0.131198        -0.105937        -0.080388
 C         1.371946        -0.049672         0.022329
 C         2.001080        -0.549562         1.361984
 C         3.576541        -0.296222         0.939310
 C         3.333770         0.361253        -0.350972
 C         3.721858         1.500779        -1.305753
 O         2.418690         2.039772        -1.233962
 C         2.129172         1.277211         0.097473
 O         2.336889        -0.566302        -1.013399
 H        -0.462990        -1.162844         0.174745
 H        -0.431206         0.673195         0.667331
 H        -0.275143         0.244681        -1.133211
 H         2.039479         0.063016         2.261943
 H         1.731535        -1.557316         1.636790
 H         3.914863         0.507377         1.693222
 H         4.286208        -1.149596         0.989856
 H         4.368724         2.251792        -0.847166
 H         4.065792         1.164817        -2.255440
 H         2.178358         1.834544         1.046444
