19
Iteration:  4693charge 0 multiplicity 1
 C        -0.128607        -0.007732        -0.126648
 C         1.344017         0.079513         0.117452
 C         1.844619         0.207110         1.569836
 C         3.421609         0.299272         1.289926
 C         3.306004         0.342614        -0.237526
 C         3.915469         0.977112        -1.511485
 O         2.542606         1.418398        -1.831664
 C         2.185649         1.286323        -0.406230
 O         2.387866        -0.878209        -0.381346
 H        -0.668808        -0.667773         0.621367
 H        -0.618777         0.998909        -0.001061
 H        -0.340021        -0.390308        -1.119890
 H         1.481748         0.971087         2.243573
 H         1.513742        -0.767687         1.880882
 H         3.901298         1.251073         1.648715
 H         3.840386        -0.636117         1.737525
 H         4.516832         1.825187        -1.325849
 H         4.338122         0.316100        -2.229651
 H         2.038237         2.314985         0.098500
