19
Iteration:  3125charge 0 multiplicity 1
 C        -0.141527        -0.112210        -0.155642
 C         1.333057         0.137605         0.127401
 C         1.982103        -0.428382         1.511007
 C         3.579917        -0.076193         1.233887
 C         3.297606         0.440461        -0.175770
 C         3.846340         1.143925        -1.449418
 O         2.446001         1.750745        -1.571933
 C         2.147114         1.439441        -0.205002
 O         2.285438        -0.563503        -0.788995
 H        -0.254091        -1.141900         0.130189
 H        -0.724122         0.590286         0.384652
 H        -0.212963        -0.011520        -1.197148
 H         1.681941         0.188289         2.448535
 H         1.936707        -1.453959         1.673985
 H         3.892558         0.653225         1.985944
 H         4.275451        -0.952913         1.257274
 H         4.688029         1.876875        -1.254303
 H         3.978353         0.563581        -2.317495
 H         2.043108         2.253697         0.512805
