19
Iteration:  3990charge 0 multiplicity 1
 C        -0.124973        -0.114382        -0.073762
 C         1.353826         0.214596         0.131536
 C         1.773250         0.049062         1.589900
 C         3.370891         0.329094         1.425968
 C         3.352973         0.502624        -0.142382
 C         3.866725         0.834514        -1.446557
 O         2.629850         1.274449        -1.953499
 C         2.178241         1.398812        -0.553190
 O         2.366655        -0.667335        -0.438863
 H        -0.162473        -1.155989        -0.398239
 H        -0.445111        -0.019454         1.020282
 H        -0.739391         0.442422        -0.819674
 H         1.413354         0.775842         2.356692
 H         1.498019        -0.943136         1.952405
 H         3.765996         1.285050         1.900211
 H         4.069201        -0.539792         1.717500
 H         4.652359         1.584388        -1.737290
 H         4.205521        -0.060237        -2.083591
 H         2.101181         2.425266        -0.321722
