19
Iteration:  4723
 C        -0.129627        -0.128461        -0.176462
 C         1.348443         0.083116         0.125443
 C         1.935151         0.242051         1.613768
 C         3.423089         0.278664         1.371423
 C         3.296566         0.340794        -0.186500
 C         3.842241         0.762868        -1.501856
 O         2.567502         1.557476        -1.806025
 C         2.141234         1.343537        -0.412735
 O         2.372512        -0.756771        -0.535572
 H        -0.669950        -0.576589         0.754438
 H        -0.526136         0.836648        -0.379680
 H        -0.192774        -0.861125        -0.989810
 H         1.632454         1.017123         2.261102
 H         1.370619        -0.605101         2.092554
 H         3.910087         1.252455         1.676738
 H         4.089518        -0.365406         1.922259
 H         4.760277         1.494172        -1.471418
 H         3.993438        -0.208219        -2.035219
 H         1.861100         2.213969         0.122745
