19
Iteration:  4622
 C        -0.069720        -0.296976        -0.143635
 C         1.297426         0.253023         0.044025
 C         1.860563         0.327007         1.598424
 C         3.458417         0.218343         1.407839
 C         3.330344         0.312001        -0.155157
 C         3.742345         0.731263        -1.545699
 O         2.654607         1.531666        -1.854800
 C         2.149442         1.504372        -0.451065
 O         2.352424        -0.776825        -0.403506
 H        -0.229843        -1.360021        -0.350262
 H        -0.455940        -0.136280         0.878166
 H        -0.679560         0.346774        -0.840451
 H         1.438435         1.209674         2.165514
 H         1.618568        -0.682146         1.965625
 H         3.960313         1.122464         1.781232
 H         3.824973        -0.765031         1.651046
 H         4.720051         1.420856        -1.509006
 H         3.951429        -0.145455        -2.252455
 H         2.068357         2.408173         0.075803
