19
Iteration:   809charge 0 multiplicity 1
 C        -0.107751        -0.213014        -0.131809
 C         1.381330         0.021945         0.060970
 C         2.070713        -0.628029         1.356924
 C         3.619262        -0.387209         1.052926
 C         3.365475         0.380032        -0.316716
 C         3.691903         1.408806        -1.378154
 O         2.368801         2.158699        -1.184504
 C         2.142451         1.376864        -0.007718
 O         2.303361        -0.475729        -0.970012
 H        -0.599894        -0.927795         0.596951
 H        -0.463761         0.849598         0.067282
 H        -0.274340        -0.440038        -1.207554
 H         1.743322        -0.057287         2.229791
 H         1.744259        -1.709780         1.517691
 H         4.027094         0.332601         1.769600
 H         4.209612        -1.356233         1.050681
 H         4.601304         2.009406        -1.133579
 H         3.824445         0.938643        -2.356694
 H         2.018560         2.031567         0.793314
