19
Iteration:  4936charge 0 multiplicity 1
 C        -0.137258        -0.167555        -0.068438
 C         1.269546         0.117892         0.168216
 C         1.951517         0.199939         1.682422
 C         3.465459         0.272942         1.227761
 C         3.235285         0.323973        -0.191884
 C         3.968013         0.947332        -1.433995
 O         2.653378         1.481700        -1.826997
 C         2.083515         1.326175        -0.487866
 O         2.287945        -0.800016        -0.530889
 H        -0.707014        -0.795851         0.634437
 H        -0.621367         0.844798        -0.222420
 H        -0.327559        -0.597127        -1.107171
 H         1.546199         1.059916         2.133068
 H         1.554982        -0.674213         2.146702
 H         3.821593         1.290797         1.529212
 H         4.193516        -0.400980         1.758870
 H         4.838899         1.760715        -1.271605
 H         4.295513         0.143253        -2.152088
 H         1.863541         2.286556         0.010923
