19
Iteration:   835
 C        -0.077787        -0.291429        -0.184208
 C         1.281019         0.153390         0.149329
 C         2.073963        -0.656706         1.337927
 C         3.577260        -0.425617         0.953836
 C         3.327000         0.476243        -0.251400
 C         3.748119         1.447266        -1.418599
 O         2.405404         2.079570        -1.244477
 C         2.169436         1.492785         0.084219
 O         2.288593        -0.514948        -0.871069
 H        -0.349327        -1.125999         0.437416
 H        -0.740231         0.501917        -0.016196
 H         0.089555        -0.524133        -1.228726
 H         1.639362        -0.163928         2.299639
 H         1.918293        -1.683935         1.304234
 H         4.365030        -0.001977         1.636323
 H         3.765622        -1.397399         0.579033
 H         4.613618         1.987404        -1.347287
 H         3.679727         0.844311        -2.297022
 H         2.269419         2.294408         0.928215
