19
Iteration:  4044
 C        -0.066066        -0.223029        -0.290521
 C         1.340287         0.109685         0.129706
 C         1.916911         0.410456         1.615151
 C         3.416137         0.291217         1.407845
 C         3.278110         0.278498        -0.267260
 C         3.929993         0.780303        -1.559368
 O         2.561334         1.544882        -1.800599
 C         2.128929         1.383094        -0.423638
 O         2.288367        -0.855499        -0.315250
 H        -0.064438        -1.321237        -0.387151
 H        -0.886647        -0.063397         0.522051
 H        -0.364539         0.294920        -1.241440
 H         1.659654         1.390261         2.183965
 H         1.598787        -0.417916         2.264962
 H         3.953556         1.258917         1.612197
 H         4.054408        -0.566313         1.804910
 H         4.655889         1.566097        -1.370141
 H         4.027775         0.262231        -2.500659
 H         1.988611         2.278601         0.117056
