19
Iteration:  1317charge 0 multiplicity 1
 C        -0.161532        -0.170403        -0.087606
 C         1.347040        -0.003870         0.105260
 C         2.115152        -0.684280         1.354289
 C         3.571828        -0.328659         0.968858
 C         3.270699         0.423986        -0.336436
 C         3.829475         1.495785        -1.250889
 O         2.464884         2.141728        -1.268217
 C         2.126282         1.349254        -0.075805
 O         2.236466        -0.623047        -0.958540
 H        -0.442968        -1.059547        -0.666767
 H        -0.532732        -0.135091         0.975377
 H        -0.594490         0.764392        -0.512114
 H         1.761269         0.049411         2.055920
 H         1.712055        -1.704789         1.676764
 H         4.034475         0.410200         1.716883
 H         4.443636        -1.131195         0.907410
 H         4.495163         2.100296        -0.680521
 H         4.366678         1.462487        -2.247022
 H         1.892044         2.063607         0.756746
