19
Iteration:  1784
 C        -0.149020        -0.242917        -0.147107
 C         1.366542        -0.024588         0.062175
 C         2.131180        -0.517053         1.303232
 C         3.629415        -0.230121         0.996935
 C         3.259101         0.317283        -0.304909
 C         3.723298         1.363551        -1.306483
 O         2.480097         2.096837        -1.170993
 C         2.082708         1.364066         0.007203
 O         2.254769        -0.495904        -0.953551
 H        -0.652006        -1.169539         0.199011
 H        -0.644174         0.647943         0.318141
 H        -0.508676        -0.214641        -1.212534
 H         1.906471         0.063441         2.195050
 H         2.070700        -1.600914         1.515147
 H         4.170435         0.530310         1.644261
 H         4.262624        -1.257144         0.923726
 H         4.548591         2.070872        -0.962986
 H         3.959805         1.117219        -2.386791
 H         2.153325         1.941368         0.921110
