19
Iteration:  3600charge 0 multiplicity 1
 C        -0.094984        -0.146173        -0.204268
 C         1.343327         0.015577         0.103910
 C         1.938497         0.141007         1.599869
 C         3.498636         0.207896         1.322424
 C         3.272570         0.352459        -0.245077
 C         3.873752         0.905334        -1.470112
 O         2.575101         1.661655        -1.727028
 C         2.103137         1.343311        -0.277279
 O         2.296835        -0.768788        -0.588319
 H        -0.624146        -0.310720         0.767342
 H        -0.604507         0.699540        -0.724919
 H        -0.433442        -1.036894        -0.692857
 H         1.586636         0.887591         2.156810
 H         1.785078        -0.843838         2.168792
 H         4.017198         1.048357         1.690096
 H         3.936749        -0.712738         1.648626
 H         4.598631         1.718234        -1.231400
 H         4.244367         0.217411        -2.322127
 H         1.875149         2.297293         0.119700
