19
Iteration:  2368
 C        -0.028753        -0.239365        -0.212717
 C         1.346696         0.121085         0.169021
 C         2.002999        -0.533566         1.365114
 C         3.563856        -0.326399         0.994289
 C         3.298692         0.476243        -0.222315
 C         3.722718         1.263667        -1.499587
 O         2.461498         2.076578        -1.244978
 C         2.117188         1.432278         0.016619
 O         2.307722        -0.475807        -0.851938
 H         0.046627        -0.607247        -1.264356
 H        -0.225359        -1.090348         0.543530
 H        -0.850379         0.408734        -0.063033
 H         1.723328        -0.253471         2.488164
 H         1.816962        -1.685636         1.417073
 H         4.277709         0.031425         1.861086
 H         3.934308        -1.359808         0.824908
 H         4.540285         1.987598        -1.571953
 H         3.608022         0.600196        -2.397536
 H         2.086558         2.149123         0.885093
