19
Iteration:    28charge 0 multiplicity 1
 C        -0.145386        -0.230010        -0.201836
 C         1.447469        -0.079338         0.010309
 C         2.103118        -0.576997         1.337156
 C         3.634924        -0.431324         0.900155
 C         3.276675         0.335004        -0.378792
 C         3.591477         1.500594        -1.297502
 O         2.471373         2.283935        -0.826076
 C         2.157467         1.294700         0.086575
 O         2.282028        -0.483590        -1.157934
 H        -0.646792        -0.500709         0.767001
 H        -0.465764         0.793440        -0.519827
 H        -0.344012        -1.003132        -0.981983
 H         1.750024         0.042242         2.229171
 H         1.859846        -1.690270         1.452766
 H         4.254097         0.274792         1.516586
 H         4.106596        -1.454063         0.874785
 H         4.550977         2.076997        -1.310025
 H         3.497579         1.181695        -2.374927
 H         2.141996         1.835454         1.116594
