19
Iteration:  1703
 C        -0.048490        -0.268805        -0.197965
 C         1.357304         0.009140         0.137775
 C         2.127071        -0.578094         1.396614
 C         3.559796        -0.409648         1.004759
 C         3.324928         0.471900        -0.246041
 C         3.703440         1.288576        -1.415255
 O         2.397768         2.064465        -1.328187
 C         2.106497         1.454416         0.070796
 O         2.291762        -0.353487        -0.895973
 H        -0.241124        -1.246511        -0.657495
 H        -0.741598        -0.133476         0.622624
 H        -0.295601         0.542500        -0.841225
 H         1.781777         0.026560         2.364026
 H         1.951320        -1.653916         1.652036
 H         4.070182         0.060675         1.885216
 H         3.994678        -1.360193         0.619071
 H         4.559355         2.010934        -1.174005
 H         3.736613         0.777647        -2.376850
 H         2.130599         2.105483         0.978035
