19
Iteration:  4591charge 0 multiplicity 1
 C        -0.160727        -0.210730        -0.136809
 C         1.234816         0.107204         0.256403
 C         1.847441         0.308805         1.596388
 C         3.449579         0.367675         1.275737
 C         3.265989         0.296929        -0.239204
 C         3.878459         0.763919        -1.537439
 O         2.666611         1.547154        -1.803033
 C         2.173492         1.380419        -0.416084
 O         2.381707        -0.852347        -0.483435
 H        -0.236520        -1.268350        -0.624701
 H        -0.924329        -0.155265         0.674506
 H        -0.628693         0.625408        -0.797517
 H         1.498526         1.261161         2.017676
 H         1.503203        -0.412894         2.417365
 H         4.016081         1.392702         1.582884
 H         4.090784        -0.440624         1.696291
 H         4.759771         1.421956        -1.365114
 H         4.123710         0.019714        -2.329194
 H         2.309394         2.342935         0.212640
