19
Iteration:  1453charge 0 multiplicity 1
 C        -0.098143        -0.100971        -0.034412
 C         1.392110        -0.021238         0.076110
 C         2.057251        -0.542458         1.290845
 C         3.605640        -0.343696         1.005260
 C         3.321615         0.396264        -0.289115
 C         3.762544         1.480438        -1.218597
 O         2.347796         2.062975        -1.290229
 C         2.155344         1.319752        -0.039085
 O         2.318013        -0.593787        -0.998815
 H        -0.611236        -1.122280         0.038477
 H        -0.627070         0.463398         0.784343
 H        -0.557378         0.297193        -0.983530
 H         1.455668        -0.095896         2.110341
 H         1.896112        -1.608166         1.279389
 H         4.198554         0.265316         1.790532
 H         4.114624        -1.315195         0.794562
 H         4.453980         2.213562        -0.804726
 H         4.066507         1.226830        -2.209443
 H         2.148704         2.014176         0.820927
