19
Iteration:  1899
 C        -0.145813        -0.185203        -0.006533
 C         1.370362         0.010584         0.073192
 C         2.053618        -0.559849         1.304043
 C         3.500107        -0.239175         1.049390
 C         3.287618         0.360987        -0.297145
 C         3.821698         1.425456        -1.347387
 O         2.470426         2.012335        -1.278502
 C         2.084038         1.391093        -0.024181
 O         2.341924        -0.554251        -0.979840
 H        -0.394769        -1.115150        -0.656994
 H        -0.464321        -0.108143         1.074075
 H        -0.549485         0.661861        -0.580446
 H         1.617886        -0.236662         2.258750
 H         1.795899        -1.640186         1.186464
 H         3.922532         0.457999         1.774919
 H         4.094607        -1.086292         1.003414
 H         4.583722         2.091408        -0.963344
 H         4.106886         1.234571        -2.384215
 H         2.177371         2.067519         0.893118
