19
Iteration:  2657
 C        -0.050989        -0.254079        -0.233127
 C         1.377661         0.072854         0.078282
 C         2.062224        -0.454376         1.433887
 C         3.588941        -0.296226         1.028995
 C         3.237882         0.330099        -0.342498
 C         3.691494         1.337430        -1.380652
 O         2.391366         2.123391        -1.236539
 C         2.201195         1.416780         0.061432
 O         2.269711        -0.579425        -0.863352
 H        -0.066778        -0.333102        -1.349762
 H        -0.351657        -1.272645        -0.003251
 H        -0.544757         0.641256         0.053929
 H         1.776101         0.229903         2.288475
 H         1.902160        -1.510957         1.630795
 H         4.309931         0.218568         1.678516
 H         4.009024        -1.384464         0.834808
 H         4.705588         1.940896        -1.285012
 H         3.573354         0.949855        -2.393110
 H         2.348668         2.096996         0.887104
