19
Iteration:  3286charge 0 multiplicity 1
 C        -0.107418        -0.052998        -0.084874
 C         1.370411         0.072115         0.142203
 C         1.983539        -0.187414         1.538362
 C         3.522807         0.041765         1.272915
 C         3.271844         0.309456        -0.273661
 C         3.802146         1.205080        -1.354797
 O         2.524037         1.744116        -1.709137
 C         2.059723         1.354916        -0.300182
 O         2.369714        -0.791178        -0.720655
 H        -0.716345         0.684782         0.568354
 H        -0.442604         0.189445        -1.125251
 H        -0.584556        -1.023168         0.138368
 H         1.604822         0.609559         2.208623
 H         1.655299        -1.151390         1.757221
 H         4.092703         0.874900         1.731937
 H         4.072259        -0.939682         1.467556
 H         4.601339         1.898507        -0.863824
 H         4.260798         0.580592        -2.147553
 H         1.871645         2.198680         0.344563
