19
Iteration:  3053
 C        -0.053737        -0.205605        -0.204802
 C         1.374753         0.049952         0.104232
 C         1.987757        -0.219652         1.539142
 C         3.542645        -0.138582         1.101181
 C         3.262426         0.295590        -0.244032
 C         3.773967         1.216996        -1.428593
 O         2.490864         1.910591        -1.418832
 C         2.107848         1.425066        -0.182585
 O         2.316161        -0.640043        -0.778546
 H        -0.409343        -0.006435         0.829748
 H        -0.473600         0.449581        -1.045373
 H        -0.216305        -1.319158        -0.260202
 H         1.602345         0.618078         2.030345
 H         1.477749        -1.117781         2.018580
 H         4.224084         0.498291         1.692201
 H         3.894989        -1.145999         1.073667
 H         4.541066         1.853334        -1.161121
 H         4.028157         0.621669        -2.325186
 H         2.019358         2.232149         0.581780
