19
Iteration:  4166
 C        -0.071800        -0.172912        -0.187534
 C         1.413736         0.120297         0.081001
 C         1.877673         0.316950         1.562692
 C         3.415347         0.242420         1.329466
 C         3.286795         0.329765        -0.192090
 C         3.848953         0.819715        -1.458365
 O         2.522170         1.504356        -1.765965
 C         2.158930         1.290021        -0.432353
 O         2.352010        -0.766914        -0.448716
 H        -0.491673        -0.851363         0.600312
 H        -0.633429         0.854750        -0.122482
 H        -0.206267        -0.590518        -1.208106
 H         1.661318         1.388130         1.925484
 H         1.513934        -0.453488         2.372219
 H         3.909206         1.228613         1.726894
 H         3.935467        -0.613458         1.799584
 H         4.580516         1.564837        -1.299367
 H         4.043132         0.137683        -2.312096
 H         2.097066         2.254690         0.008903
