19
Iteration:  4335charge 0 multiplicity 1
 C        -0.061138        -0.268678        -0.175281
 C         1.366788         0.216576         0.174746
 C         1.769898         0.175082         1.605488
 C         3.410862         0.287717         1.308333
 C         3.319142         0.438678        -0.183774
 C         3.804075         0.659924        -1.573455
 O         2.623711         1.537942        -1.845544
 C         2.188476         1.503243        -0.417885
 O         2.360875        -0.733607        -0.371194
 H        -0.088787        -1.330220         0.072358
 H        -0.754487         0.377619         0.400868
 H        -0.272997        -0.069140        -1.227772
 H         1.449171         1.027229         2.185150
 H         1.449682        -0.736536         2.027727
 H         3.976461         1.093096         1.732847
 H         3.824945        -0.730183         1.596586
 H         4.751747         1.148715        -1.561997
 H         3.851344        -0.214604        -2.177832
 H         2.037009         2.502222         0.054789
