19
Iteration:  1181charge 0 multiplicity 1
 C        -0.107481        -0.194362        -0.046196
 C         1.412731         0.086089         0.009992
 C         2.033917        -0.688038         1.279722
 C         3.579508        -0.397035         1.014005
 C         3.311637         0.468395        -0.258152
 C         3.712936         1.461502        -1.308611
 O         2.430884         2.063286        -1.334428
 C         2.128213         1.412875        -0.029655
 O         2.315013        -0.487837        -0.879178
 H        -0.348211        -1.223596         0.147440
 H        -0.496306         0.376074         0.749480
 H        -0.600885         0.080784        -0.965519
 H         1.674423        -0.404642         2.367342
 H         1.898511        -1.725747         1.129154
 H         4.094920         0.051552         1.857667
 H         3.966964        -1.370203         0.903362
 H         4.544558         1.996111        -0.740414
 H         4.032508         1.163712        -2.294564
 H         1.989033         2.168937         0.817390
