19
Iteration:  3113
 C        -0.025063        -0.138959        -0.207828
 C         1.375561         0.123892         0.207308
 C         2.034775        -0.340260         1.439492
 C         3.488197        -0.074830         1.168147
 C         3.280101         0.409520        -0.230419
 C         3.814662         1.082698        -1.403500
 O         2.390031         1.817630        -1.521598
 C         2.170246         1.404475        -0.129745
 O         2.302219        -0.556481        -0.754368
 H        -0.547367        -0.967582         0.291690
 H        -0.734355         0.635744        -0.029582
 H        -0.094251        -0.317568        -1.259991
 H         1.609053         0.138227         2.436307
 H         1.766776        -1.361312         1.487945
 H         4.029137         0.763078         1.631870
 H         4.041639        -1.054410         1.367878
 H         4.567545         1.849113        -1.456518
 H         3.969480         0.315750        -2.104365
 H         2.200832         2.322214         0.423037
