19
Iteration:  1476charge 0 multiplicity 1
 C        -0.069055        -0.161888        -0.071008
 C         1.330816         0.087382         0.053099
 C         2.111778        -0.713342         1.423143
 C         3.557529        -0.426876         0.966501
 C         3.286103         0.437627        -0.263709
 C         3.770429         1.447293        -1.282656
 O         2.475144         2.010913        -1.408544
 C         2.044551         1.442209        -0.002635
 O         2.302771        -0.439764        -0.905774
 H        -0.407978        -1.262379        -0.264094
 H        -0.604034         0.043465         0.926797
 H        -0.732416         0.339403        -0.838221
 H         1.899927        -0.410540         2.522221
 H         1.788646        -1.763894         1.257324
 H         3.984777         0.229720         1.796652
 H         4.319089        -1.227896         0.684181
 H         4.413858         2.267719        -0.938366
 H         4.189799         1.175245        -2.277152
 H         1.864055         2.231562         0.774657
