19
Iteration:  3974
 C        -0.172108        -0.121688        -0.037782
 C         1.261282         0.216330         0.111317
 C         1.894305         0.136788         1.611259
 C         3.376583         0.353222         1.391052
 C         3.280675         0.440005        -0.156492
 C         4.059057         0.794516        -1.485642
 O         2.558882         1.313472        -1.969104
 C         2.139117         1.370581        -0.491363
 O         2.419939        -0.693846        -0.448266
 H        -0.370184        -1.215882        -0.267997
 H        -0.870800         0.061174         0.730462
 H        -0.461676         0.480074        -0.909887
 H         1.225237         0.747277         2.322102
 H         1.638771        -0.959137         1.770839
 H         3.753794         1.204750         1.903420
 H         3.856867        -0.528332         1.688239
 H         4.630100         1.655365        -1.256529
 H         4.475785         0.021941        -2.086559
 H         1.951429         2.421244        -0.039641
