19
Iteration:   970
 C         0.021854        -0.175135        -0.225007
 C         1.407983         0.048114         0.207625
 C         2.043832        -0.574581         1.368241
 C         3.565438        -0.396492         0.980702
 C         3.291808         0.378378        -0.280404
 C         3.698193         1.434417        -1.374569
 O         2.399071         2.173289        -1.307900
 C         2.095085         1.366526         0.077204
 O         2.258453        -0.544809        -0.875471
 H        -0.021977        -1.212381        -0.473706
 H        -0.731092        -0.104612         0.581888
 H        -0.350860         0.374285        -1.054529
 H         1.799608        -0.120486         2.316600
 H         1.825755        -1.732379         1.520140
 H         4.260791        -0.047045         1.704158
 H         4.053870        -1.255921         0.453317
 H         4.552929         2.005352        -1.216050
 H         3.804898         1.048238        -2.402906
 H         2.336020         2.128811         0.958022
