19
Iteration:  2992charge 0 multiplicity 1
 C        -0.097238        -0.116708        -0.067647
 C         1.395930         0.113097         0.126345
 C         2.069990        -0.438140         1.393213
 C         3.510753        -0.128752         1.249014
 C         3.263233         0.439980        -0.225719
 C         3.773769         1.194397        -1.354675
 O         2.518466         1.873163        -1.535989
 C         2.054192         1.404362        -0.182781
 O         2.316535        -0.622781        -0.874751
 H        -0.653119         0.759932        -0.416587
 H        -0.424096        -0.919178        -0.654683
 H        -0.545266        -0.388933         0.896300
 H         1.610940         0.052510         2.338117
 H         1.864696        -1.509129         1.518181
 H         3.956887         0.456997         2.079366
 H         4.201425        -1.010121         1.031102
 H         4.513392         2.099239        -1.190074
 H         4.073042         0.684038        -2.296579
 H         1.944763         2.248554         0.498839
