19
Iteration:  3263charge 0 multiplicity 1
 C        -0.065106        -0.074981        -0.176940
 C         1.378013         0.060606         0.102517
 C         1.942971        -0.239330         1.516184
 C         3.459292         0.055747         1.227095
 C         3.304603         0.394906        -0.225627
 C         3.831374         1.127520        -1.460159
 O         2.437958         1.673902        -1.574395
 C         2.197168         1.335982        -0.248513
 O         2.342534        -0.643229        -0.667539
 H        -0.583630         0.950193        -0.064270
 H        -0.492351        -0.451101        -1.118978
 H        -0.603972        -0.666664         0.613843
 H         1.656431         0.473100         2.268072
 H         1.725482        -1.320353         1.715185
 H         3.884196         0.907665         1.790724
 H         4.089463        -0.850578         1.411391
 H         4.560826         2.029081        -1.215035
 H         4.166580         0.444656        -2.352670
 H         2.079191         2.154992         0.497454
