19
Iteration:  2773
 C        -0.067432        -0.235783        -0.153281
 C         1.354709         0.049353         0.097502
 C         2.088358        -0.446377         1.416602
 C         3.536417        -0.268931         1.033547
 C         3.333001         0.447164        -0.235160
 C         3.746966         1.262108        -1.394198
 O         2.426998         2.033351        -1.307701
 C         2.160652         1.395921        -0.022514
 O         2.271996        -0.541609        -0.913730
 H        -0.717702         0.632542         0.032023
 H        -0.204631        -0.177585        -1.203894
 H        -0.654083        -1.064061         0.329566
 H         1.785781         0.089104         2.324099
 H         1.832391        -1.521679         1.549730
 H         4.070206         0.361993         1.738624
 H         4.073196        -1.186119         0.853973
 H         4.507209         1.886391        -1.049608
 H         3.973986         0.745385        -2.294750
 H         1.865961         2.031921         0.845891
