19
Iteration:   130charge 0 multiplicity 1
 C        -0.088206        -0.150980        -0.062095
 C         1.411541        -0.023315         0.084432
 C         2.086799        -0.669618         1.315700
 C         3.617688        -0.441974         0.868649
 C         3.263030         0.322011        -0.433459
 C         3.787922         1.553460        -1.216087
 O         2.340776         2.226138        -1.067680
 C         2.054491         1.313443         0.012769
 O         2.342217        -0.519757        -1.046930
 H        -0.274911        -0.769656        -0.955349
 H        -0.579880        -0.533461         0.835787
 H        -0.359710         0.892591        -0.246383
 H         1.814202        -0.188672         2.243951
 H         1.871985        -1.785938         1.347506
 H         4.168872         0.152266         1.578235
 H         4.079352        -1.414533         0.793875
 H         4.477702         2.120858        -0.589997
 H         4.059373         1.525274        -2.324786
 H         1.760579         1.972034         0.803778
