19
Iteration:  1207charge 0 multiplicity 1
 C        -0.100898        -0.149754        -0.081376
 C         1.382260         0.009166         0.106553
 C         2.032269        -0.583327         1.417300
 C         3.604445        -0.315070         0.940938
 C         3.260590         0.413086        -0.345201
 C         3.785979         1.502846        -1.254460
 O         2.408175         2.042705        -1.206708
 C         2.132314         1.288416        -0.034308
 O         2.302218        -0.545618        -1.065029
 H        -0.599257        -1.135437         0.120535
 H        -0.764516         0.634775         0.442073
 H        -0.211824        -0.000180        -1.184290
 H         1.710466         0.076354         2.195278
 H         1.875196        -1.655995         1.711673
 H         4.162560         0.412850         1.597852
 H         4.060131        -1.424074         0.985959
 H         4.406177         2.089687        -0.635374
 H         4.218844         1.251206        -2.273424
 H         2.157499         1.917748         0.881117
