19
Iteration:  3799charge 0 multiplicity 1
 C        -0.079163        -0.192532        -0.210244
 C         1.328538         0.171765         0.094171
 C         1.870392         0.227230         1.621343
 C         3.459001         0.147559         1.356073
 C         3.251590         0.412713        -0.110892
 C         3.859460         0.863848        -1.517546
 O         2.611551         1.465011        -1.855837
 C         2.133106         1.353687        -0.382978
 O         2.339923        -0.681595        -0.479511
 H        -0.842382         0.629669        -0.049177
 H        -0.382536        -0.606393        -1.203426
 H        -0.496623        -0.810368         0.575190
 H         1.763041         1.100104         2.270576
 H         1.513387        -0.690936         2.194734
 H         3.979838         0.967435         1.819148
 H         3.979040        -0.733182         1.556795
 H         4.779572         1.563331        -1.414910
 H         4.174294         0.031627        -2.128918
 H         1.986291         2.285848         0.033756
