19
Iteration:  2949
 C        -0.040842        -0.133401        -0.282884
 C         1.361558         0.056520         0.101840
 C         2.047511        -0.323269         1.514280
 C         3.564507        -0.200785         1.128348
 C         3.250460         0.333268        -0.259163
 C         3.686563         1.290658        -1.453617
 O         2.429786         1.958311        -1.364059
 C         2.199454         1.396162        -0.100867
 O         2.277534        -0.666634        -0.770706
 H         0.107236        -0.273825        -1.367854
 H        -0.423042        -1.096445         0.057819
 H        -0.834332         0.504758         0.114225
 H         1.686678         0.428026         2.294820
 H         1.840088        -1.327340         1.874756
 H         4.265508         0.434500         1.695691
 H         4.015108        -1.254162         1.205716
 H         4.625847         1.951598        -1.227939
 H         3.839171         0.837326        -2.464208
 H         2.272420         2.198882         0.693768
