19
Iteration:  3791charge 0 multiplicity 1
 C        -0.068630        -0.214975        -0.219575
 C         1.299224         0.225103         0.106871
 C         1.890729         0.189312         1.630103
 C         3.451559         0.124577         1.382793
 C         3.255474         0.355939        -0.135773
 C         3.931631         0.794258        -1.521260
 O         2.535462         1.505305        -1.838617
 C         2.134247         1.437772        -0.462753
 O         2.336300        -0.640847        -0.435108
 H        -0.707036         0.693677        -0.270919
 H         0.019983        -0.911671        -1.034414
 H        -0.331024        -0.909286         0.610909
 H         1.563355         1.046125         2.274385
 H         1.491562        -0.651232         2.020889
 H         4.086842         0.930678         1.822599
 H         3.932510        -0.880755         1.615581
 H         4.754640         1.638369        -1.429097
 H         4.079877        -0.038602        -2.177523
 H         1.978772         2.394770         0.071612
