19
Iteration:  1041
 C        -0.101097        -0.198545        -0.063748
 C         1.316187         0.105918         0.145163
 C         2.085137        -0.731947         1.286789
 C         3.588368        -0.370276         1.025924
 C         3.288557         0.418510        -0.293090
 C         3.788668         1.505681        -1.317435
 O         2.458173         2.123237        -1.365860
 C         2.157140         1.391022        -0.026260
 O         2.238152        -0.479762        -0.908899
 H        -0.310893        -1.218418         0.388324
 H        -0.912790         0.397325         0.406383
 H        -0.362946        -0.330471        -1.154540
 H         1.772369        -0.658797         2.353745
 H         1.893026        -1.716098         1.039116
 H         4.000247         0.180368         1.935733
 H         4.038654        -1.374928         1.037949
 H         4.664066         2.057407        -0.812271
 H         4.157945         1.026429        -2.251490
 H         1.989042         2.016668         0.852299
