19
Iteration:   521
 C        -0.070691        -0.244711        -0.074631
 C         1.367634         0.053192         0.152370
 C         2.031163        -0.683246         1.302219
 C         3.611220        -0.350558         0.944024
 C         3.247160         0.427018        -0.271626
 C         3.803792         1.386619        -1.326599
 O         2.454898         2.025974        -1.290722
 C         2.077129         1.461456         0.056228
 O         2.272432        -0.375574        -0.967762
 H        -0.343776        -1.321164         0.257766
 H        -0.620670         0.547650         0.544190
 H        -0.260043        -0.120753        -1.185013
 H         1.618352        -0.500121         2.351903
 H         1.835996        -1.734865         1.197826
 H         4.032536         0.284506         1.769042
 H         4.277547        -1.156367         0.797578
 H         4.586881         2.074082        -1.022283
 H         3.982029         0.886170        -2.316006
 H         1.989693         2.151616         0.848266
