19
Iteration:  1482
 C        -0.122507        -0.224218        -0.097091
 C         1.370947         0.071514         0.146948
 C         2.117576        -0.704657         1.407043
 C         3.572016        -0.423948         0.922478
 C         3.278113         0.480176        -0.223614
 C         3.776977         1.424647        -1.264694
 O         2.482271         2.012624        -1.437470
 C         2.089997         1.438562         0.043628
 O         2.267042        -0.401826        -0.927891
 H        -0.372373        -1.226911        -0.355075
 H        -0.689091        -0.071533         0.791971
 H        -0.702100         0.391654        -0.794893
 H         1.689851        -0.368407         2.315720
 H         1.793192        -1.730396         1.313583
 H         3.957159         0.278034         1.702964
 H         4.310617        -1.161699         0.756818
 H         4.556111         2.199191        -1.043024
 H         4.079861         0.967480        -2.219610
 H         1.939139         2.315325         0.651574
