19
Iteration:  4846charge 0 multiplicity 1
 C        -0.130906        -0.103619        -0.191693
 C         1.350393         0.222062         0.136604
 C         1.956717         0.084899         1.601433
 C         3.446274         0.338602         1.346556
 C         3.258184         0.433819        -0.172568
 C         3.875787         0.778885        -1.454322
 O         2.615058         1.346139        -1.851587
 C         2.155429         1.395870        -0.359316
 O         2.254090        -0.723723        -0.465838
 H        -0.085289        -1.151372        -0.446961
 H        -0.808773         0.081403         0.691701
 H        -0.565584         0.447046        -1.023723
 H         1.420513         0.841538         2.088498
 H         1.793840        -0.893408         1.916483
 H         3.784542         1.289286         1.739087
 H         4.243767        -0.414406         1.552914
 H         4.659037         1.624187        -1.515333
 H         4.175669         0.102733        -2.256876
 H         2.083013         2.384708        -0.052974
