19
Iteration:  3408
 C        -0.126019        -0.051120        -0.116535
 C         1.318499         0.055295         0.131658
 C         1.945007        -0.093278         1.542977
 C         3.502045         0.160521         1.280335
 C         3.317462         0.318073        -0.216238
 C         3.907692         1.134315        -1.455407
 O         2.462303         1.573378        -1.721676
 C         2.141237         1.286525        -0.267832
 O         2.335014        -0.705059        -0.661639
 H        -0.440541        -0.918916        -0.743278
 H        -0.852229        -0.070628         0.723852
 H        -0.409923         0.788063        -0.741853
 H         1.575600         0.627745         2.321687
 H         1.672165        -1.019339         1.779757
 H         3.766215         1.015304         1.943976
 H         4.238869        -0.705545         1.365028
 H         4.595990         1.968670        -0.966594
 H         4.408133         0.655772        -2.249150
 H         2.165989         2.120991         0.397479
