19
Iteration:   867charge 0 multiplicity 1
 C        -0.132027        -0.240741        -0.161196
 C         1.371714         0.033185         0.061811
 C         2.135741        -0.591001         1.456643
 C         3.609534        -0.341723         0.948964
 C         3.227650         0.389839        -0.337279
 C         3.770207         1.437801        -1.304026
 O         2.451812         2.024043        -1.231597
 C         2.097405         1.342718         0.093452
 O         2.254821        -0.414619        -1.023867
 H        -0.532648        -1.217043         0.212312
 H        -0.669052         0.551695         0.355948
 H        -0.419371        -0.129057        -1.228684
 H         1.887762         0.246903         2.210734
 H         2.007403        -1.578242         1.792738
 H         4.295400         0.312171         1.578368
 H         4.053060        -1.323905         0.842068
 H         4.593946         1.995515        -0.890278
 H         3.981097         1.030973        -2.268964
 H         2.076746         2.106833         0.872484
