19
Iteration:  2642charge 0 multiplicity 1
 C        -0.099951        -0.179501        -0.224882
 C         1.418030         0.014972         0.124309
 C         2.050297        -0.448048         1.447760
 C         3.632729        -0.304817         1.031594
 C         3.309500         0.383981        -0.300823
 C         3.642883         1.396185        -1.459235
 O         2.448950         2.098555        -1.176843
 C         2.169234         1.291045        -0.023134
 O         2.261160        -0.602026        -0.943518
 H        -0.212030        -0.463614        -1.269843
 H        -0.500881        -0.955337         0.426850
 H        -0.873332         0.689134         0.000710
 H         1.851585         0.270191         2.200010
 H         1.717795        -1.480224         1.688080
 H         3.910569         0.453351         1.750024
 H         4.203764        -1.207800         1.064861
 H         4.508783         2.090104        -1.074366
 H         3.979025         0.997322        -2.430377
 H         2.127492         1.920265         0.915965
