19
Iteration:  1177charge 0 multiplicity 1
 C        -0.126155        -0.210277        -0.039490
 C         1.396954         0.112316         0.025137
 C         2.033520        -0.696201         1.293395
 C         3.580531        -0.385376         1.002111
 C         3.313540         0.473084        -0.200527
 C         3.696121         1.459210        -1.363953
 O         2.468200         2.030087        -1.303654
 C         2.106565         1.417111        -0.025807
 O         2.318351        -0.469583        -0.893238
 H        -0.317503        -1.302835         0.057627
 H        -0.563893         0.397001         0.798932
 H        -0.563328         0.169702        -0.997730
 H         1.486492        -0.389686         2.212646
 H         1.920682        -1.826479         1.088236
 H         4.209971         0.108294         1.763369
 H         4.090527        -1.352104         0.824141
 H         4.530941         2.103747        -0.856708
 H         4.158536         1.094078        -2.304781
 H         1.996497         2.104896         0.765674
