19
Iteration:  2753
 C        -0.141605        -0.175407        -0.092772
 C         1.280066        -0.002674         0.053765
 C         2.075411        -0.537140         1.453728
 C         3.648905        -0.198881         1.067420
 C         3.249169         0.369880        -0.381695
 C         3.794842         1.387987        -1.291371
 O         2.503210         2.016824        -1.328500
 C         2.067076         1.367708        -0.094782
 O         2.303346        -0.580508        -0.923272
 H        -0.659474         0.856239         0.000749
 H        -0.424302        -0.473326        -1.111617
 H        -0.549031        -0.706292         0.830604
 H         1.687895         0.106610         2.225803
 H         1.830438        -1.557256         1.560608
 H         4.061154         0.481766         1.724586
 H         4.295944        -1.101518         1.076671
 H         4.664243         1.946402        -0.953076
 H         3.992442         1.063029        -2.288364
 H         2.056320         1.966467         0.877408
