19
Iteration:  1689charge 0 multiplicity 1
 C        -0.048383        -0.253670        -0.242837
 C         1.382740         0.091218         0.195156
 C         2.072421        -0.533044         1.410359
 C         3.654876        -0.375829         0.949253
 C         3.211737         0.398698        -0.287166
 C         3.719905         1.359749        -1.417343
 O         2.427290         2.099015        -1.206502
 C         2.140165         1.428316         0.039235
 O         2.243314        -0.521153        -0.874717
 H         0.103828        -1.201929        -0.728250
 H        -0.800524        -0.317727         0.505749
 H        -0.442491         0.368103        -1.069507
 H         2.002032         0.043063         2.352665
 H         1.682984        -1.539951         1.459682
 H         4.170596         0.283069         1.568824
 H         4.117140        -1.257893         0.855328
 H         4.567663         1.993278        -1.289004
 H         3.818714         0.852665        -2.361876
 H         1.991936         2.256992         0.748476
