19
Iteration:  1785charge 0 multiplicity 1
 C        -0.149526        -0.250593        -0.151072
 C         1.372612        -0.017580         0.057900
 C         2.120108        -0.518269         1.305591
 C         3.636007        -0.234365         0.990865
 C         3.257664         0.318520        -0.301302
 C         3.718179         1.358841        -1.309371
 O         2.477606         2.097865        -1.170871
 C         2.086340         1.373902         0.012152
 O         2.259679        -0.495252        -0.949787
 H        -0.660651        -1.168326         0.238322
 H        -0.632286         0.628989         0.326247
 H        -0.497870        -0.198586        -1.235358
 H         1.873179         0.036638         2.172939
 H         2.089108        -1.565299         1.519428
 H         4.172071         0.495257         1.649950
 H         4.252508        -1.240348         0.925761
 H         4.532808         2.048333        -0.965855
 H         3.937320         1.106523        -2.373321
 H         2.184459         1.956281         0.909202
