19
Iteration:  1509charge 0 multiplicity 1
 C        -0.073788        -0.318334        -0.188211
 C         1.363726         0.132428         0.089509
 C         2.121151        -0.540540         1.397141
 C         3.581521        -0.320717         0.975773
 C         3.241771         0.398315        -0.260760
 C         3.774250         1.280901        -1.397682
 O         2.458735         2.062295        -1.195736
 C         2.161606         1.441810         0.024663
 O         2.204157        -0.411950        -0.935246
 H        -0.104885        -1.417284        -0.572746
 H        -0.710947        -0.342632         0.796029
 H        -0.701330         0.318138        -0.871733
 H         1.631997        -0.212398         2.346744
 H         1.887030        -1.621635         1.285788
 H         4.155110         0.248062         1.794548
 H         4.230871        -1.260216         0.789432
 H         4.521641         2.008596        -1.099875
 H         3.874262         0.949560        -2.454890
 H         2.112338         2.154353         0.892821
