19
Iteration:  3913charge 0 multiplicity 1
 C        -0.111919        -0.245182        -0.204021
 C         1.326648         0.224576         0.103535
 C         1.811654         0.308521         1.648087
 C         3.384908         0.207243         1.338430
 C         3.330071         0.359744        -0.184996
 C         3.819052         0.806230        -1.549787
 O         2.606347         1.518356        -1.855906
 C         2.195112         1.320104        -0.375061
 O         2.386464        -0.732476        -0.376014
 H        -0.374199        -0.963957         0.584527
 H        -0.736759         0.648001        -0.447976
 H         0.051773        -0.823146        -1.156066
 H         1.590906         1.293355         2.130310
 H         1.430301        -0.429754         2.279940
 H         4.060683         0.981173         1.797749
 H         3.882708        -0.794744         1.658249
 H         4.717682         1.556102        -1.712002
 H         3.956889        -0.043603        -2.315900
 H         2.020900         2.310744         0.071880
