19
Iteration:  1513
 C        -0.101920        -0.327566        -0.203769
 C         1.392355         0.151783         0.087381
 C         2.107440        -0.536079         1.413938
 C         3.587097        -0.347751         0.978320
 C         3.239743         0.387226        -0.284236
 C         3.738684         1.313572        -1.396394
 O         2.468336         2.087278        -1.194827
 C         2.169679         1.423806         0.044886
 O         2.217880        -0.442809        -0.932924
 H        -0.024648        -1.326273        -0.528379
 H        -0.539310        -0.333775         0.775048
 H        -0.643228         0.299968        -0.875207
 H         1.655311        -0.131539         2.351409
 H         1.832427        -1.616677         1.297080
 H         4.054154         0.337080         1.608757
 H         4.182846        -1.220148         0.909700
 H         4.604473         1.960623        -1.096995
 H         3.769897         0.881204        -2.432155
 H         2.076712         2.173074         0.849267
