19
Iteration:   918charge 0 multiplicity 1
 C        -0.088724        -0.198587        -0.044075
 C         1.396099         0.027031         0.104003
 C         2.039739        -0.610807         1.363720
 C         3.523944        -0.328273         0.994197
 C         3.321316         0.398705        -0.273261
 C         3.767249         1.370137        -1.334713
 O         2.398953         2.094707        -1.240807
 C         2.119547         1.407590        -0.021854
 O         2.321116        -0.506337        -1.039939
 H        -0.418315        -1.104679        -0.593647
 H        -0.633980        -0.135851         0.922177
 H        -0.514178         0.644476        -0.614441
 H         1.769411        -0.239979         2.320414
 H         1.961027        -1.712639         1.295258
 H         3.997987         0.396992         1.661155
 H         4.195626        -1.203589         1.023423
 H         4.593893         2.028667        -0.876822
 H         4.012600         1.044555        -2.364088
 H         2.109573         2.186462         0.751351
