19
Iteration:  1795
 C        -0.123422        -0.292666        -0.175624
 C         1.369707         0.043867         0.033165
 C         2.028248        -0.537010         1.388452
 C         3.658437        -0.305592         0.954119
 C         3.254805         0.429674        -0.314108
 C         3.676398         1.339359        -1.348158
 O         2.425749         2.117758        -1.194411
 C         2.187086         1.436588         0.065650
 O         2.315440        -0.522597        -0.939639
 H        -0.357840        -1.196845         0.409360
 H        -0.643742         0.528148         0.383185
 H        -0.272245        -0.174033        -1.281273
 H         1.527925        -0.094108         2.261087
 H         1.816406        -1.641278         1.465641
 H         4.175672         0.317272         1.754051
 H         4.260810        -1.370964         0.859042
 H         4.623880         1.878808        -0.981104
 H         3.736029         0.831202        -2.360007
 H         2.204107         2.141395         0.884993
