19
Iteration:  3836charge 0 multiplicity 1
 C        -0.130338        -0.041703        -0.088123
 C         1.343629         0.148216         0.064319
 C         1.841739         0.168459         1.606617
 C         3.400032         0.296171         1.322845
 C         3.303812         0.299771        -0.230093
 C         3.903428         0.910654        -1.406277
 O         2.614513         1.451026        -1.890443
 C         2.109369         1.242464        -0.427075
 O         2.381620        -0.799790        -0.477423
 H        -0.394699         0.392966         0.877037
 H        -0.543136         0.525867        -0.910130
 H        -0.325428        -1.131397        -0.204149
 H         1.435327         1.027887         2.183904
 H         1.499511        -0.714965         2.015673
 H         3.648440         1.319096         1.705997
 H         4.103505        -0.472480         1.821936
 H         4.517131         1.837492        -1.057508
 H         4.355604         0.335086        -2.245593
 H         2.059497         2.241907         0.074703
