19
Iteration:   599
 C        -0.082730        -0.210844        -0.203355
 C         1.355100         0.068290         0.154206
 C         2.080898        -0.621045         1.423625
 C         3.642547        -0.430418         0.973777
 C         3.340901         0.340201        -0.271461
 C         3.718270         1.475795        -1.389153
 O         2.404944         2.083179        -1.245800
 C         2.120099         1.452141        -0.010212
 O         2.253209        -0.457221        -0.899057
 H        -0.434490        -1.303246        -0.056285
 H        -0.953889         0.361955         0.315707
 H        -0.121433        -0.120428        -1.350451
 H         1.921576        -0.084321         2.417370
 H         1.800123        -1.728782         1.591413
 H         4.371154         0.176266         1.634256
 H         4.082286        -1.399416         0.818921
 H         4.501236         2.164196        -1.099752
 H         3.845442         1.075514        -2.439099
 H         1.901502         2.066877         0.853467
