19
Iteration:  3481charge 0 multiplicity 1
 C        -0.043680        -0.285506        -0.187866
 C         1.299777         0.114665         0.112923
 C         1.936545         0.106136         1.593995
 C         3.484314         0.126210         1.304949
 C         3.240499         0.305489        -0.254088
 C         3.805664         0.927753        -1.556543
 O         2.589949         1.780259        -1.629789
 C         2.184997         1.371069        -0.286949
 O         2.294997        -0.700002        -0.609780
 H        -0.440304        -0.213477        -1.211186
 H        -0.218124        -1.339499         0.089530
 H        -0.751594         0.247397         0.384389
 H         1.501729         0.943430         2.168137
 H         1.621546        -0.944627         2.028940
 H         4.041318         0.929898         1.730156
 H         3.863879        -0.833174         1.631041
 H         4.615769         1.579670        -1.328204
 H         3.975207         0.295306        -2.428018
 H         2.285353         2.155068         0.540353
