19
Iteration:  1431charge 0 multiplicity 1
 C        -0.077818        -0.112845        -0.183689
 C         1.395128        -0.011297         0.037519
 C         2.113872        -0.605392         1.444438
 C         3.587026        -0.306205         0.999516
 C         3.231263         0.354653        -0.383802
 C         3.742759         1.462402        -1.360587
 O         2.393782         2.042691        -1.121529
 C         2.154185         1.281929         0.014228
 O         2.307422        -0.506391        -0.993991
 H        -0.594391        -1.074962         0.149914
 H        -0.599234         0.669357         0.431388
 H        -0.571911         0.040421        -1.170170
 H         1.698969         0.124551         2.166873
 H         1.779417        -1.558438         1.802646
 H         4.081493         0.530630         1.593818
 H         4.240169        -1.198014         1.079567
 H         4.627915         1.917090        -0.943287
 H         3.880812         1.313479        -2.406806
 H         2.028562         1.997233         0.824378
