19
Iteration:  3568
 C        -0.125311        -0.133272        -0.133499
 C         1.357720         0.187873         0.165281
 C         1.860826        -0.045937         1.564546
 C         3.483632         0.119446         1.298353
 C         3.290575         0.428448        -0.156335
 C         3.909351         0.969159        -1.453038
 O         2.470562         1.480131        -1.814042
 C         2.182569         1.431720        -0.374607
 O         2.367742        -0.648728        -0.564633
 H        -0.585660         0.547069         0.644658
 H        -0.424729         0.043912        -1.191533
 H        -0.274023        -1.158337         0.098571
 H         1.517264         0.405497         2.432451
 H         1.713552        -1.196184         1.660366
 H         3.906237         0.878391         1.883968
 H         3.813607        -0.859029         1.498086
 H         4.545266         1.853277        -1.241504
 H         4.485433         0.303836        -2.141948
 H         1.927553         2.476728        -0.025789
