19
Iteration:    65
 C        -0.042321        -0.269476        -0.195700
 C         1.393951         0.031399         0.100823
 C         2.137812        -0.797207         1.247410
 C         3.637277        -0.470326         0.873215
 C         3.259117         0.418493        -0.270071
 C         3.714898         1.477573        -1.258368
 O         2.429211         2.262002        -1.082068
 C         2.181379         1.494683         0.121120
 O         2.128302        -0.446093        -1.012155
 H        -0.413507        -1.154921         0.385595
 H        -0.731155         0.534922         0.059365
 H        -0.199273        -0.439826        -1.257191
 H         1.905162        -0.591986         2.261947
 H         1.830255        -1.860258         1.097650
 H         4.089459         0.128609         1.626540
 H         4.360646        -1.251436         0.611120
 H         4.535472         2.097762        -0.962852
 H         3.666607         0.957208        -2.237972
 H         2.191995         2.025262         1.000647
