19
Iteration:   985
 C        -0.066761        -0.196550        -0.177375
 C         1.392474        -0.034430         0.019888
 C         2.062738        -0.544818         1.465873
 C         3.591018        -0.437271         0.956417
 C         3.302041         0.449923        -0.320553
 C         3.682944         1.498104        -1.409356
 O         2.417112         2.129547        -1.189283
 C         2.201161         1.390650         0.040978
 O         2.257543        -0.600757        -0.916238
 H        -0.411865        -1.269895        -0.315574
 H        -0.598763         0.355023         0.602964
 H        -0.307500         0.359971        -1.129676
 H         1.827844         0.128835         2.297455
 H         1.710446        -1.496123         1.610256
 H         4.174387         0.157133         1.722827
 H         4.035687        -1.418642         0.966688
 H         4.488939         2.222979        -0.994387
 H         3.895458         1.081154        -2.390574
 H         1.949797         2.016984         0.901327
