19
Iteration:  1180
 C        -0.113974        -0.198870        -0.042910
 C         1.411716         0.095294         0.011725
 C         2.034133        -0.692287         1.281005
 C         3.581442        -0.396586         1.010189
 C         3.312468         0.471493        -0.242924
 C         3.704433         1.461159        -1.324974
 O         2.441502         2.054517        -1.327117
 C         2.122846         1.413092        -0.030022
 O         2.315254        -0.483248        -0.880483
 H        -0.341179        -1.235864         0.123292
 H        -0.501515         0.372921         0.747596
 H        -0.591878         0.100829        -0.971093
 H         1.613751        -0.394475         2.350857
 H         1.911750        -1.753925         1.118891
 H         4.123626         0.056922         1.828524
 H         3.977739        -1.338925         0.898841
 H         4.557204         2.020791        -0.752769
 H         4.064220         1.151384        -2.288589
 H         1.988657         2.153550         0.808727
