19
Iteration:   977
 C        -0.006427        -0.194151        -0.223336
 C         1.420266         0.018535         0.101264
 C         2.030770        -0.583937         1.422787
 C         3.580301        -0.425418         0.953867
 C         3.327313         0.447957        -0.308929
 C         3.675828         1.482848        -1.394134
 O         2.420542         2.169406        -1.282033
 C         2.141534         1.371565         0.121652
 O         2.226734        -0.607130        -0.879652
 H        -0.210248        -1.288856        -0.362111
 H        -0.527427         0.130987         0.711684
 H        -0.278413         0.422429        -1.117424
 H         1.742868         0.043477         2.335489
 H         1.838694        -1.619440         1.667853
 H         4.193960         0.136203         1.713904
 H         3.903526        -1.472334         0.761112
 H         4.616923         2.095406        -1.092059
 H         3.773863         1.137075        -2.443747
 H         2.097978         2.118753         0.828695
