19
Iteration:   543
 C        -0.200876        -0.236836        -0.088522
 C         1.359173        -0.004395         0.052163
 C         2.061237        -0.635875         1.350451
 C         3.558164        -0.368756         1.008833
 C         3.310674         0.435386        -0.296305
 C         3.729872         1.482319        -1.381790
 O         2.472723         2.233967        -1.242541
 C         2.195803         1.395019        -0.038382
 O         2.288781        -0.602346        -0.918098
 H        -0.421505        -1.186815         0.516717
 H        -0.684966         0.709027         0.338038
 H        -0.413975        -0.419421        -1.188088
 H         1.859132        -0.336061         2.434985
 H         1.892038        -1.701004         1.437366
 H         4.063546         0.168376         1.878254
 H         4.144146        -1.239689         0.830636
 H         4.446191         2.131542        -0.923407
 H         3.983290         1.217666        -2.441383
 H         2.324028         1.861554         0.898740
