19
Iteration:  1287charge 0 multiplicity 1
 C        -0.106095        -0.223301        -0.173703
 C         1.385360         0.164656         0.169219
 C         2.077487        -0.640889         1.301858
 C         3.598222        -0.360598         1.052148
 C         3.301565         0.400933        -0.215251
 C         3.638721         1.349639        -1.336165
 O         2.430607         2.044703        -1.263460
 C         2.189478         1.372171         0.066487
 O         2.316171        -0.398813        -1.028952
 H        -0.140293        -1.297067        -0.516737
 H        -0.758936        -0.234371         0.745246
 H        -0.721461         0.407579        -0.888957
 H         1.517617        -0.209074         2.110886
 H         1.855340        -1.692082         1.315902
 H         4.211494         0.273328         1.779943
 H         4.209011        -1.244722         0.776242
 H         4.450667         2.085097        -1.122522
 H         3.828413         0.854611        -2.237187
 H         2.131485         2.086030         0.834642
