19
Iteration:  1075
 C        -0.077554        -0.168331        -0.125248
 C         1.408167        -0.003127         0.055511
 C         2.082329        -0.582792         1.330780
 C         3.572672        -0.379539         1.001183
 C         3.263453         0.432287        -0.244725
 C         3.773553         1.382449        -1.332966
 O         2.410089         2.038161        -1.219354
 C         2.129566         1.366239         0.025830
 O         2.257000        -0.384440        -0.985115
 H        -0.145447        -1.312771        -0.094295
 H        -0.770349         0.251256         0.671125
 H        -0.381637         0.169318        -1.153503
 H         2.007620        -0.117856         2.309805
 H         1.882614        -1.622968         1.421118
 H         4.090025         0.192598         1.822640
 H         4.052949        -1.388271         0.739738
 H         4.515053         2.250086        -1.128524
 H         4.003080         0.690759        -2.203503
 H         1.790632         1.976674         0.854684
