19
Iteration:  2502charge 0 multiplicity 1
 C        -0.038833        -0.221225        -0.220344
 C         1.399078         0.088266         0.109695
 C         2.052383        -0.499333         1.445769
 C         3.563959        -0.226388         1.091042
 C         3.287529         0.342553        -0.349704
 C         3.670621         1.335761        -1.446132
 O         2.468572         2.054602        -1.255501
 C         2.194837         1.376665         0.012417
 O         2.246241        -0.558919        -0.847669
 H        -0.429488         0.624664        -0.743762
 H        -0.053536        -1.065712        -0.849225
 H        -0.701980        -0.482416         0.658578
 H         1.584644         0.100913         2.328285
 H         1.757360        -1.568242         1.448774
 H         4.182384         0.515745         1.565979
 H         3.991227        -1.252682         0.997066
 H         4.572175         1.871860        -1.328434
 H         3.651342         1.007792        -2.460227
 H         2.002314         2.068647         0.820116
