19
Iteration:  1927charge 0 multiplicity 1
 C        -0.113350        -0.234158        -0.126792
 C         1.329393         0.093339         0.079990
 C         2.093973        -0.605005         1.366833
 C         3.590244        -0.363228         1.043947
 C         3.294542         0.452187        -0.157480
 C         3.758530         1.289339        -1.339499
 O         2.426949         2.032254        -1.332418
 C         2.087031         1.469093        -0.003976
 O         2.309537        -0.413121        -0.979204
 H        -0.210928        -1.293713        -0.294397
 H        -0.605159        -0.009040         0.804488
 H        -0.571460         0.174311        -1.038229
 H         1.796365        -0.158047         2.343434
 H         1.641382        -1.584175         1.360409
 H         4.120336         0.107936         1.916047
 H         4.329361        -1.231054         0.760026
 H         4.633787         2.018064        -1.222580
 H         3.914299         0.831380        -2.329659
 H         2.227519         2.134212         0.821562
