19
Iteration:  3620charge 0 multiplicity 1
 C        -0.104242        -0.228142        -0.142818
 C         1.344719         0.176437         0.107959
 C         1.893857         0.148337         1.571786
 C         3.473572         0.204543         1.287061
 C         3.241818         0.254102        -0.238950
 C         3.816159         0.949951        -1.476224
 O         2.583937         1.676977        -1.694882
 C         2.198011         1.330784        -0.309196
 O         2.349257        -0.774910        -0.558761
 H        -0.647007        -0.856116         0.610164
 H        -0.745303         0.633305        -0.521210
 H         0.013607        -0.839053        -1.088738
 H         1.645835         1.121837         2.068511
 H         1.419229        -0.719858         2.173348
 H         3.839341         1.161775         1.690930
 H         3.958647        -0.750614         1.564200
 H         4.780267         1.488060        -1.427105
 H         3.791426         0.183307        -2.408586
 H         2.199842         2.197756         0.294796
