19
Iteration:  4425charge 0 multiplicity 1
 C        -0.141247        -0.174248        -0.045071
 C         1.307540         0.195099         0.155419
 C         1.890003         0.118627         1.597249
 C         3.397513         0.179022         1.358304
 C         3.298535         0.510317        -0.137453
 C         3.947330         0.881196        -1.478920
 O         2.587149         1.346649        -1.912658
 C         2.105835         1.356275        -0.463575
 O         2.375969        -0.624736        -0.519330
 H        -0.555214        -0.481616         0.899440
 H        -0.546828         0.759345        -0.614330
 H        -0.246474        -0.929814        -0.823887
 H         1.458621         0.910099         2.234181
 H         1.498017        -0.740150         2.033991
 H         3.954219         0.887507         2.100703
 H         3.967727        -0.781735         1.550325
 H         4.670357         1.620027        -1.532996
 H         4.202081        -0.029652        -2.024807
 H         2.074116         2.522047        -0.255761
