19
Iteration:  1105
 C        -0.148716        -0.161743        -0.236049
 C         1.404216        -0.075997         0.048009
 C         2.044012        -0.503039         1.400628
 C         3.589796        -0.365934         0.958555
 C         3.215710         0.348535        -0.374100
 C         3.696023         1.442112        -1.354704
 O         2.399216         2.171432        -1.149112
 C         2.238639         1.365097         0.023428
 O         2.330194        -0.589566        -0.860914
 H        -0.292532        -1.150031        -0.682768
 H        -0.674441        -0.090127         0.688769
 H        -0.475957         0.579309        -0.970299
 H         2.015613         0.206861         2.263638
 H         1.860609        -1.452920         1.761606
 H         4.266590         0.103690         1.706407
 H         4.090394        -1.291662         0.689861
 H         4.385588         2.177690        -1.046817
 H         3.954595         1.151531        -2.340599
 H         2.265481         1.973098         0.997698
