19
Iteration:  4663
 C        -0.090646        -0.108533        -0.131982
 C         1.367543         0.155934         0.145514
 C         1.909861         0.160726         1.688226
 C         3.493560         0.258600         1.386271
 C         3.216439         0.418836        -0.184604
 C         3.877385         0.866106        -1.457554
 O         2.609530         1.277688        -1.908364
 C         2.124507         1.425120        -0.426743
 O         2.279664        -0.684774        -0.536278
 H        -0.278349        -1.122059         0.012283
 H        -0.852038         0.482719         0.445349
 H        -0.319346         0.077168        -1.168825
 H         1.552545         1.056569         2.329433
 H         1.589946        -0.816311         1.989311
 H         4.008349         1.098121         1.774919
 H         3.898239        -0.735984         1.644969
 H         4.545473         1.751406        -1.301148
 H         4.384063         0.174157        -2.142297
 H         2.011294         2.501177        -0.211596
