19
Iteration:  4392charge 0 multiplicity 1
 C        -0.094243        -0.077328        -0.145703
 C         1.333932         0.201407         0.131755
 C         1.923997         0.161523         1.600346
 C         3.439867         0.270206         1.281830
 C         3.256657         0.319703        -0.182951
 C         3.888135         0.981936        -1.406984
 O         2.543315         1.365012        -1.890391
 C         2.123617         1.260632        -0.420235
 O         2.350640        -0.770018        -0.435748
 H        -0.773554        -0.356920         0.626490
 H        -0.671775         0.869740        -0.502376
 H        -0.221087        -0.815361        -0.916626
 H         1.663036         1.016894         2.219582
 H         1.588311        -0.738215         1.969013
 H         3.934270         1.249638         1.645450
 H         3.936325        -0.656250         1.705459
 H         4.470829         1.862063        -1.109606
 H         4.504767         0.337794        -2.040316
 H         2.351476         2.364168        -0.186386
