19
Iteration:  4273charge 0 multiplicity 1
 C        -0.065269        -0.042639        -0.064549
 C         1.350839         0.129697         0.126086
 C         1.896029         0.240345         1.558748
 C         3.365581         0.297058         1.320596
 C         3.272137         0.373256        -0.200503
 C         3.964929         0.920038        -1.377245
 O         2.588100         1.427707        -1.892144
 C         2.085233         1.248877        -0.535607
 O         2.363060        -0.875063        -0.431553
 H        -0.425180        -0.965400        -0.452639
 H        -0.729262        -0.052282         0.885742
 H        -0.498071         0.629887        -0.788591
 H         1.622465         1.199174         2.089751
 H         1.507466        -0.601605         2.133279
 H         3.848157         1.198361         1.772360
 H         3.715285        -0.727085         1.592258
 H         4.563735         1.926484        -1.260764
 H         4.494291         0.313165        -2.159140
 H         1.805286         2.306513        -0.076495
