19
Iteration:  2517charge 0 multiplicity 1
 C        -0.098663        -0.221973        -0.230997
 C         1.317357        -0.037247         0.118681
 C         2.028664        -0.411317         1.462576
 C         3.600932        -0.283001         1.034788
 C         3.264685         0.368910        -0.315985
 C         3.720462         1.339508        -1.528218
 O         2.452298         2.162033        -1.181570
 C         2.184369         1.368396         0.000024
 O         2.289753        -0.635721        -0.869234
 H        -0.547003         0.490985        -0.995389
 H        -0.259272        -1.215907        -0.769698
 H        -0.715756        -0.143216         0.622732
 H         1.892226         0.406856         2.276838
 H         1.817592        -1.435740         1.763287
 H         3.855180         0.434900         1.833029
 H         4.342434        -1.162235         1.085107
 H         4.661706         2.026438        -1.362617
 H         3.956594         0.887648        -2.547039
 H         2.452232         1.914828         0.913611
