19
Iteration:  3422charge 0 multiplicity 1
 C        -0.155044        -0.047958        -0.116298
 C         1.358600         0.139948         0.157449
 C         1.924493        -0.206422         1.571561
 C         3.477172         0.038376         1.235516
 C         3.278314         0.461794        -0.240647
 C         3.938629         1.123857        -1.403096
 O         2.486148         1.513433        -1.762152
 C         2.112573         1.394776        -0.318358
 O         2.372687        -0.701934        -0.604685
 H        -0.221339        -0.893082        -0.785511
 H        -0.557216        -0.277678         0.886193
 H        -0.698472         0.923757        -0.508493
 H         1.522951         0.480294         2.280049
 H         1.739776        -1.200108         2.017942
 H         3.897400         1.001430         1.643577
 H         4.047414        -0.826477         1.594107
 H         4.440340         2.099924        -1.247832
 H         4.478004         0.559739        -2.252349
 H         1.943157         2.375650         0.094552
