19
Iteration:  3098
 C        -0.037970        -0.164975        -0.259972
 C         1.382952         0.134897         0.096618
 C         1.960293        -0.284748         1.564834
 C         3.575858        -0.107176         1.192860
 C         3.266812         0.374082        -0.264619
 C         3.685657         1.113670        -1.516665
 O         2.478951         1.837879        -1.480446
 C         2.149038         1.449841        -0.086141
 O         2.308710        -0.616829        -0.720231
 H        -0.510908        -0.850267         0.512383
 H        -0.535211         0.855810        -0.387410
 H         0.070723        -0.686243        -1.290975
 H         1.668016         0.303160         2.416990
 H         1.846582        -1.441228         1.676543
 H         3.997448         0.640936         1.930610
 H         4.199346        -1.015504         1.165502
 H         4.517887         1.725243        -1.229388
 H         3.834796         0.669732        -2.552613
 H         2.062291         2.173596         0.740265
