19
Iteration:  4773
 C        -0.084207        -0.208486        -0.101274
 C         1.278127         0.239857         0.132945
 C         1.905564         0.182336         1.692602
 C         3.411077         0.172303         1.362670
 C         3.221872         0.390301        -0.209431
 C         3.899206         0.825981        -1.488069
 O         2.659943         1.420482        -1.918709
 C         2.092214         1.428792        -0.389746
 O         2.356636        -0.656758        -0.544666
 H        -0.218790        -1.000467         0.612274
 H        -0.867565         0.614726        -0.076614
 H        -0.089075        -0.740874        -1.099615
 H         1.703183         1.165639         2.290152
 H         1.479008        -0.696562         2.224525
 H         4.005041         0.852662         1.970043
 H         3.728651        -0.831803         1.778173
 H         4.671736         1.559257        -1.483587
 H         4.195439         0.001593        -2.172942
 H         1.993393         2.567692        -0.141080
