19
Iteration:  2674charge 0 multiplicity 1
 C        -0.031565        -0.238258        -0.256071
 C         1.346939         0.056660         0.167057
 C         2.066980        -0.468549         1.456302
 C         3.592306        -0.382554         0.976225
 C         3.302868         0.450507        -0.261604
 C         3.692696         1.276777        -1.453897
 O         2.455597         2.070787        -1.257530
 C         2.122782         1.426741        -0.003706
 O         2.276460        -0.476987        -0.848928
 H        -0.232971         0.037730        -1.285717
 H        -0.170036        -1.341109        -0.075456
 H        -0.890988         0.128576         0.389408
 H         1.895295        -0.040003         2.420342
 H         1.587467        -1.472778         1.586131
 H         4.197274         0.203989         1.680461
 H         4.120071        -1.260628         0.713350
 H         4.411707         1.994914        -1.165580
 H         3.852049         0.767427        -2.405344
 H         1.948617         2.138431         0.851431
