19
Iteration:  3856charge 0 multiplicity 1
 C        -0.188581        -0.135060        -0.090038
 C         1.349778         0.173831         0.146253
 C         1.866902         0.096391         1.552010
 C         3.424768         0.336094         1.395336
 C         3.262629         0.371911        -0.171795
 C         3.995140         0.874515        -1.460280
 O         2.589719         1.410207        -1.876046
 C         2.215663         1.411403        -0.493725
 O         2.283481        -0.792902        -0.461189
 H        -0.904298        -0.047145         0.838903
 H        -0.581242         0.619487        -0.772963
 H        -0.244910        -1.112763        -0.637315
 H         1.424146         0.807258         2.314776
 H         1.841138        -0.874223         1.912283
 H         3.838208         1.296183         1.718514
 H         3.971662        -0.557229         1.770760
 H         4.639033         1.864661        -1.339286
 H         4.305924         0.240821        -2.270801
 H         2.174896         2.411210        -0.182834
