19
Iteration:  2562
 C        -0.108885        -0.244172        -0.085940
 C         1.418831         0.070046         0.120480
 C         2.033049        -0.568367         1.367867
 C         3.558087        -0.323581         0.997388
 C         3.284268         0.388981        -0.230966
 C         3.799968         1.391487        -1.298372
 O         2.377613         2.021227        -1.358290
 C         2.184000         1.439729        -0.051570
 O         2.274788        -0.477527        -0.923795
 H        -0.291246        -0.395670        -1.193594
 H        -0.410985        -1.285985         0.302099
 H        -0.751794         0.555890         0.230310
 H         1.842525         0.124073         2.240567
 H         1.645113        -1.610707         1.620817
 H         4.211696         0.310449         1.682264
 H         4.147573        -1.247660         0.860754
 H         4.675798         2.120466        -1.059231
 H         3.959957         0.802667        -2.271134
 H         2.044918         2.187449         0.765297
