19
Iteration:   123
 C        -0.052179        -0.120809        -0.012589
 C         1.425661        -0.054455         0.025331
 C         2.106194        -0.662563         1.279950
 C         3.607063        -0.496290         0.905072
 C         3.266162         0.357021        -0.404346
 C         3.731957         1.550474        -1.190015
 O         2.349153         2.227405        -1.122922
 C         2.041031         1.332269         0.010516
 O         2.343597        -0.522508        -1.022696
 H        -0.266015        -0.821213        -0.784396
 H        -0.511324        -0.470597         0.937617
 H        -0.479174         0.841473        -0.433784
 H         1.649445        -0.205016         2.208885
 H         1.879683        -1.652456         1.131538
 H         4.278924         0.051860         1.647272
 H         4.019447        -1.447571         0.638104
 H         4.505494         2.156257        -0.670907
 H         4.133924         1.630082        -2.145419
 H         1.740156         1.880281         0.925519
