19
Iteration:  3538charge 0 multiplicity 1
 C        -0.125070        -0.156441        -0.126644
 C         1.354740         0.149634         0.169102
 C         1.899723        -0.049261         1.577983
 C         3.470567         0.079270         1.303719
 C         3.298764         0.427338        -0.120797
 C         3.876439         0.963702        -1.492914
 O         2.504533         1.566939        -1.751758
 C         2.183887         1.410569        -0.378869
 O         2.349541        -0.661643        -0.665430
 H        -0.631241         0.802299        -0.260099
 H        -0.175833        -0.735881        -1.047547
 H        -0.491237        -0.693558         0.722690
 H         1.623843         0.762067         2.421110
 H         1.517737        -1.005067         1.967337
 H         3.799281         0.941649         1.932384
 H         4.036221        -0.774217         1.686302
 H         4.615942         1.774575        -1.431763
 H         4.169628         0.188370        -2.089263
 H         1.913553         2.442370         0.078700
