19
Iteration:  1306charge 0 multiplicity 1
 C        -0.101987        -0.182186        -0.094772
 C         1.409729        -0.012131         0.039515
 C         2.060070        -0.588503         1.343508
 C         3.570258        -0.307045         0.962555
 C         3.254756         0.382988        -0.311549
 C         3.895449         1.441918        -1.281905
 O         2.412813         2.042951        -1.235393
 C         2.096124         1.391438         0.002450
 O         2.233049        -0.497974        -0.947788
 H        -0.468641        -1.084421        -0.612543
 H        -0.642698        -0.311460         0.882544
 H        -0.553057         0.665052        -0.660426
 H         1.866118        -0.268847         2.347349
 H         1.895274        -1.725502         1.310548
 H         3.908691         0.416393         1.768321
 H         4.336352        -1.171444         0.708774
 H         4.567953         2.055282        -0.748196
 H         4.052453         1.214731        -2.375840
 H         2.035197         2.080317         0.883365
