19
Iteration:  4076
 C        -0.075192        -0.211484        -0.191733
 C         1.326260         0.130860         0.144693
 C         1.850144         0.254652         1.628289
 C         3.428494         0.267771         1.315025
 C         3.264910         0.431921        -0.149543
 C         3.899760         0.774599        -1.572014
 O         2.581880         1.415294        -1.827032
 C         2.144152         1.479355        -0.391269
 O         2.380676        -0.769452        -0.451443
 H        -0.335872        -1.167726         0.315638
 H        -0.847883         0.563504         0.235044
 H        -0.308805        -0.356312        -1.285564
 H         1.502259         1.312465         2.071780
 H         1.364187        -0.554027         2.191736
 H         3.857779         1.185877         1.781180
 H         3.998575        -0.615093         1.792976
 H         4.737161         1.433912        -1.443876
 H         4.045646        -0.040897        -2.243718
 H         2.079030         2.450378         0.127958
