19
Iteration:  4632charge 0 multiplicity 1
 C        -0.151670        -0.265291        -0.105914
 C         1.371629         0.251133         0.108255
 C         1.858363         0.236738         1.566829
 C         3.482346         0.217506         1.357910
 C         3.219395         0.412407        -0.137795
 C         3.846088         0.688361        -1.521152
 O         2.606339         1.492881        -1.857858
 C         2.171895         1.466304        -0.468249
 O         2.376438        -0.695196        -0.432489
 H         0.007612        -1.281577        -0.389530
 H        -0.821571        -0.168630         0.764435
 H        -0.612877         0.217665        -0.982260
 H         1.478947         1.134625         2.179760
 H         1.447704        -0.564032         2.174680
 H         3.985296         0.909248         1.995072
 H         3.934784        -0.705284         1.676160
 H         4.725375         1.460909        -1.562740
 H         3.997510        -0.214925        -2.192363
 H         2.110698         2.449909        -0.127432
