19
Iteration:  1263charge 0 multiplicity 1
 C         0.024687        -0.274155        -0.255651
 C         1.389920         0.048439         0.138248
 C         2.045906        -0.633662         1.388032
 C         3.526065        -0.436954         0.984222
 C         3.266237         0.502448        -0.287130
 C         3.702905         1.406881        -1.489270
 O         2.431376         2.123522        -1.211260
 C         2.156586         1.413449         0.084395
 O         2.280323        -0.435279        -0.825248
 H        -0.379680        -1.322868        -0.325893
 H        -0.586820         0.280672         0.551230
 H        -0.278690         0.327119        -1.161435
 H         1.627684        -0.308084         2.297244
 H         1.826822        -1.748257         1.326451
 H         4.237789         0.195837         1.628318
 H         3.925915        -1.551783         0.938528
 H         4.504057         2.091530        -1.480633
 H         3.747223         0.744905        -2.379737
 H         2.187364         2.078914         0.936987
