19
Iteration:  2062charge 0 multiplicity 1
 C        -0.088598        -0.245287        -0.118024
 C         1.366653        -0.023488         0.074999
 C         2.091167        -0.480290         1.453524
 C         3.595978        -0.338865         0.994643
 C         3.238633         0.432075        -0.248510
 C         3.739785         1.332368        -1.312842
 O         2.482280         2.022894        -1.323235
 C         2.133076         1.401005        -0.005312
 O         2.239306        -0.458025        -0.961939
 H        -0.204760        -1.042264        -0.886777
 H        -0.587400        -0.197559         0.862614
 H        -0.544708         0.586664        -0.650723
 H         1.852512        -0.036437         2.410845
 H         1.677924        -1.508517         1.458230
 H         4.239023         0.382872         1.683878
 H         4.123177        -1.289937         0.753354
 H         4.511098         2.155592        -1.035929
 H         4.110815         0.919231        -2.312553
 H         1.901381         2.168131         0.710817
