19
Iteration:  1349
 C        -0.118514        -0.215953        -0.092199
 C         1.344155         0.045979         0.032493
 C         2.072411        -0.542719         1.332474
 C         3.580276        -0.337971         0.942432
 C         3.281663         0.410861        -0.334232
 C         3.821217         1.428457        -1.268724
 O         2.397430         2.029026        -1.180443
 C         2.145374         1.368917        -0.014046
 O         2.302092        -0.514283        -0.980830
 H        -0.377388        -1.219265        -0.385217
 H        -0.419164        -0.049500         0.957214
 H        -0.541587         0.560214        -0.739159
 H         1.696107         0.063582         2.194040
 H         1.684294        -1.605419         1.509635
 H         4.200256         0.286967         1.611714
 H         3.952424        -1.399218         0.824207
 H         4.444844         2.085417        -0.633977
 H         4.236497         1.186015        -2.303710
 H         1.958556         2.070740         0.855489
