19
Iteration:  2057
 C        -0.079474        -0.232934        -0.097919
 C         1.356417        -0.022249         0.074448
 C         2.093027        -0.547519         1.413682
 C         3.589559        -0.307234         1.016105
 C         3.285141         0.478474        -0.250326
 C         3.757701         1.355282        -1.326100
 O         2.453553         1.993303        -1.352063
 C         2.171521         1.431910         0.004284
 O         2.205881        -0.447024        -0.977681
 H        -0.183551        -1.128646        -0.705924
 H        -0.716589        -0.231939         0.792684
 H        -0.556694         0.592888        -0.673081
 H         1.921871        -0.035061         2.454672
 H         1.770387        -1.597569         1.466064
 H         4.011244         0.297045         1.795745
 H         4.039070        -1.326984         0.863074
 H         4.506445         2.035395        -0.943342
 H         4.160129         0.710609        -2.107267
 H         1.955101         2.185132         0.809905
