19
Iteration:  4562charge 0 multiplicity 1
 C        -0.089248        -0.105320        -0.136036
 C         1.262677         0.203050         0.069317
 C         1.961533         0.180771         1.612038
 C         3.497766         0.319951         1.394044
 C         3.287950         0.450291        -0.134961
 C         3.929857         0.817180        -1.458206
 O         2.593420         1.365684        -1.865484
 C         2.058518         1.329691        -0.533994
 O         2.268104        -0.774500        -0.452021
 H        -0.186225        -1.165032        -0.462530
 H        -0.614671        -0.003171         0.783238
 H        -0.631556         0.517570        -0.817099
 H         1.645048         0.908840         2.342217
 H         1.510920        -0.748122         2.037672
 H         4.011272         1.138677         1.861020
 H         4.181335        -0.506097         1.661962
 H         4.613239         1.670604        -1.352365
 H         4.356181         0.078809        -2.120384
 H         1.969858         2.378034        -0.113660
