19
Iteration:  3334
 C        -0.023225        -0.313427        -0.112354
 C         1.344371         0.218217         0.114658
 C         1.954612        -0.066518         1.591227
 C         3.430714        -0.107898         1.272469
 C         3.315870         0.408491        -0.195080
 C         3.791850         0.993227        -1.498977
 O         2.533240         1.747050        -1.635724
 C         2.141913         1.428627        -0.329419
 O         2.285569        -0.529118        -0.685887
 H        -0.443217        -0.885743         0.699942
 H        -0.835211         0.372278        -0.440348
 H         0.081893        -1.015193        -0.977352
 H         1.671018         0.809849         2.228310
 H         1.602505        -1.051553         1.964084
 H         3.966723         0.672855         1.860210
 H         4.020826        -1.024962         1.271310
 H         4.659481         1.505294        -1.197054
 H         4.022240         0.205924        -2.188637
 H         2.226496         2.298209         0.303475
