19
Iteration:  1685charge 0 multiplicity 1
 C        -0.037164        -0.257859        -0.255836
 C         1.386044         0.138678         0.158860
 C         2.073178        -0.531089         1.450136
 C         3.668066        -0.342264         0.942787
 C         3.217124         0.381501        -0.305534
 C         3.695087         1.383154        -1.404947
 O         2.441218         2.099715        -1.182509
 C         2.152827         1.401258         0.027289
 O         2.223427        -0.556289        -0.871383
 H         0.081981        -1.269763        -0.726620
 H        -0.882513        -0.290043         0.533938
 H        -0.542040         0.364021        -1.046190
 H         1.819472         0.039646         2.318478
 H         1.736142        -1.580550         1.470821
 H         4.198501         0.394614         1.628119
 H         4.175904        -1.412678         0.709352
 H         4.599243         1.998682        -1.198345
 H         3.784078         0.842853        -2.391446
 H         2.077108         2.249086         0.714169
