19
Iteration:  1863
 C        -0.109767        -0.141443        -0.194903
 C         1.427026        -0.021901         0.095728
 C         2.099458        -0.473310         1.371588
 C         3.621769        -0.291354         1.004307
 C         3.234020         0.351533        -0.337986
 C         3.763027         1.448260        -1.311426
 O         2.448443         1.997241        -1.243746
 C         2.083038         1.368716         0.016811
 O         2.240935        -0.573572        -0.907380
 H        -0.399497        -1.086961        -0.696724
 H        -0.735808        -0.228295         0.695081
 H        -0.426415         0.761047        -0.806398
 H         1.898604        -0.038961         2.300638
 H         1.859867        -1.481839         1.415455
 H         4.213616         0.396395         1.651078
 H         4.225634        -1.245994         0.897334
 H         4.534995         2.061623        -0.758318
 H         3.997901         1.264915        -2.359701
 H         1.922419         2.035025         0.843523
