19
Iteration:  4586
 C        -0.234193        -0.205276        -0.164698
 C         1.267706         0.077762         0.236332
 C         1.877637         0.287526         1.633713
 C         3.456660         0.391546         1.249474
 C         3.268707         0.289863        -0.231762
 C         3.870133         0.784964        -1.485849
 O         2.666823         1.506155        -1.840789
 C         2.171479         1.400556        -0.389632
 O         2.395882        -0.818425        -0.486368
 H        -0.347584        -1.134567        -0.608486
 H        -0.900933        -0.129721         0.710367
 H        -0.593961         0.554782        -0.786827
 H         1.588852         1.246056         2.197982
 H         1.517165        -0.413171         2.341500
 H         4.040608         1.196165         1.473178
 H         4.028555        -0.392300         1.741342
 H         4.854640         1.379989        -1.253825
 H         4.032974         0.073584        -2.312685
 H         2.193397         2.366690         0.049177
