19
Iteration:  2768
 C        -0.116913        -0.189023        -0.123563
 C         1.410324         0.020719         0.122839
 C         2.089837        -0.440450         1.380177
 C         3.532221        -0.250119         1.000748
 C         3.270690         0.386857        -0.219317
 C         3.762169         1.292771        -1.383134
 O         2.463582         2.038537        -1.304212
 C         2.105885         1.360932        -0.016886
 O         2.294810        -0.547647        -0.924785
 H        -0.699911         0.729610         0.036269
 H        -0.279072        -0.472131        -1.252183
 H        -0.610053        -1.037511         0.305315
 H         1.800308         0.016717         2.351563
 H         1.870283        -1.508374         1.617497
 H         4.091683         0.559905         1.629564
 H         4.133721        -1.187052         0.949577
 H         4.542078         2.068954        -0.954220
 H         4.007484         0.727198        -2.349758
 H         1.906192         2.173449         0.693271
