19
Iteration:  1491charge 0 multiplicity 1
 C        -0.181211        -0.282339        -0.104418
 C         1.370021         0.024352         0.203926
 C         2.078306        -0.672648         1.313222
 C         3.618257        -0.344308         0.972034
 C         3.254153         0.517776        -0.216034
 C         3.816257         1.382590        -1.301559
 O         2.458780         2.011916        -1.399019
 C         2.138195         1.431328         0.045524
 O         2.219772        -0.356039        -0.948724
 H        -0.138342        -1.243562        -0.496902
 H        -0.736295        -0.187748         0.796356
 H        -0.350149         0.444599        -0.843615
 H         1.792671        -0.193779         2.297143
 H         1.863756        -1.781222         1.312310
 H         4.170610         0.158304         1.681100
 H         4.127864        -1.268812         0.764214
 H         4.664386         2.021491        -0.963230
 H         4.031445         0.672815        -2.150848
 H         2.130271         2.318562         0.706034
