19
Iteration:  2428
 C        -0.107397        -0.150492        -0.074071
 C         1.390122        -0.039946         0.038214
 C         2.013450        -0.440282         1.354403
 C         3.588421        -0.285820         1.015534
 C         3.297736         0.328569        -0.350244
 C         3.736126         1.397805        -1.269401
 O         2.448868         1.999457        -1.324545
 C         2.132057         1.407519        -0.043342
 O         2.283095        -0.586446        -0.910103
 H        -0.614309         0.638963        -0.633996
 H        -0.346884        -1.092158        -0.517827
 H        -0.490639        -0.163736         0.998088
 H         1.853126         0.249065         2.159584
 H         1.934975        -1.431504         1.649559
 H         3.989383         0.449915         1.666549
 H         4.095110        -1.335935         1.092038
 H         4.394222         2.142885        -0.762819
 H         4.262695         1.292208        -2.213939
 H         2.148607         2.132297         0.749085
