19
Iteration:  4509charge 0 multiplicity 1
 C        -0.081907        -0.115021        -0.158784
 C         1.330422         0.129280         0.070668
 C         1.913107         0.220894         1.584972
 C         3.463750         0.263396         1.378716
 C         3.352217         0.410686        -0.135826
 C         3.801759         0.827182        -1.477318
 O         2.584436         1.455020        -1.845602
 C         2.108794         1.365925        -0.423334
 O         2.318506        -0.788124        -0.450762
 H        -0.346631        -1.064745         0.293085
 H        -0.785528         0.629757         0.270377
 H        -0.064739        -0.301783        -1.204272
 H         1.387167         1.172898         2.011093
 H         1.596183        -0.684386         2.105380
 H         3.926545         1.139511         1.685390
 H         4.029212        -0.626288         1.693944
 H         4.656880         1.684780        -1.614452
 H         4.163781        -0.080521        -2.024532
 H         1.884251         2.310500        -0.051954
