19
Iteration:   633charge 0 multiplicity 1
 C        -0.070635        -0.173319        -0.099528
 C         1.417797         0.068992         0.087271
 C         2.015134        -0.694243         1.370347
 C         3.585761        -0.350417         0.993469
 C         3.319977         0.435670        -0.181300
 C         3.746644         1.368775        -1.309344
 O         2.339430         2.001952        -1.330481
 C         2.145773         1.435746         0.009979
 O         2.315918        -0.405377        -0.983735
 H        -0.131753        -1.222604        -0.548893
 H        -0.722955        -0.082264         0.847871
 H        -0.538602         0.609778        -0.789928
 H         1.680047        -0.137374         2.261058
 H         1.911425        -1.858746         1.410798
 H         4.121650         0.251882         1.774402
 H         4.184847        -1.239490         0.675537
 H         4.456530         2.202440        -1.197203
 H         3.976945         0.757814        -2.204934
 H         2.194314         2.189980         0.839788
