19
Iteration:  1881charge 0 multiplicity 1
 C        -0.141443        -0.124704        -0.074442
 C         1.312240         0.026446         0.049270
 C         2.056307        -0.638682         1.444692
 C         3.601696        -0.272190         1.065784
 C         3.333697         0.343205        -0.378634
 C         3.750301         1.459581        -1.268942
 O         2.420167         2.165163        -1.334758
 C         2.178946         1.302718        -0.101492
 O         2.291577        -0.617371        -0.957976
 H        -0.478227        -0.952504        -0.652398
 H        -0.646986        -0.307400         0.889054
 H        -0.637818         0.647549        -0.652760
 H         1.585903        -0.053103         2.326726
 H         1.930774        -1.754089         1.708427
 H         4.037306         0.480410         1.738832
 H         4.356867        -1.131345         1.233819
 H         4.480942         2.106650        -0.745348
 H         4.213113         1.113463        -2.237595
 H         2.214075         2.034543         0.723356
