19
Iteration:   591charge 0 multiplicity 1
 C        -0.119759        -0.230995        -0.235137
 C         1.364315         0.005486         0.115281
 C         2.109480        -0.574199         1.465613
 C         3.663728        -0.409035         1.002465
 C         3.228427         0.424371        -0.323769
 C         3.749972         1.412533        -1.337713
 O         2.378408         2.123988        -1.240992
 C         2.165126         1.357704         0.066495
 O         2.251073        -0.460285        -0.989978
 H        -0.391290        -1.202769         0.099964
 H        -0.660770         0.559526         0.246677
 H        -0.164008        -0.174559        -1.307833
 H         1.959024         0.039469         2.335106
 H         1.657776        -1.563278         1.791933
 H         4.343661         0.222793         1.583475
 H         4.185535        -1.401403         0.902023
 H         4.614277         2.146883        -1.116119
 H         3.790708         0.974825        -2.345134
 H         2.198140         2.059586         0.959006
