19
Iteration:  2498charge 0 multiplicity 1
 C        -0.024323        -0.211200        -0.199559
 C         1.395268         0.102690         0.116109
 C         2.063788        -0.503543         1.474571
 C         3.564663        -0.250390         1.086003
 C         3.308632         0.352940        -0.359986
 C         3.643044         1.313563        -1.391949
 O         2.456135         2.034601        -1.261121
 C         2.183622         1.399246        -0.021618
 O         2.249481        -0.539637        -0.860572
 H        -0.551331         0.614581        -0.749018
 H        -0.054556        -1.073246        -0.962478
 H        -0.677133        -0.472996         0.631938
 H         1.531478        -0.006986         2.202073
 H         1.792073        -1.576164         1.292693
 H         4.212008         0.516884         1.599200
 H         3.998362        -1.202306         1.017756
 H         4.612289         1.930485        -1.398246
 H         3.771956         0.869103        -2.445928
 H         2.006270         2.149146         0.818339
