19
Iteration:  2902
 C        -0.163790        -0.281343        -0.119357
 C         1.348405         0.074635         0.067308
 C         1.985808        -0.358129         1.482593
 C         3.563975        -0.231751         1.099014
 C         3.351494         0.453756        -0.204802
 C         3.798397         1.282107        -1.391569
 O         2.485118         1.898626        -1.444345
 C         2.148634         1.407552        -0.053335
 O         2.278130        -0.491950        -0.920952
 H        -0.168810        -1.267159        -0.540045
 H        -0.628189        -0.260346         0.869397
 H        -0.601079         0.542802        -0.668886
 H         1.690319         0.116688         2.447444
 H         1.672584        -1.462689         1.524091
 H         4.158566         0.277518         1.920605
 H         4.018807        -1.215677         0.952633
 H         4.699977         2.009291        -1.245647
 H         4.064569         0.537649        -2.192123
 H         2.032589         2.161654         0.705091
