19
Iteration:  1527charge 0 multiplicity 1
 C        -0.035925        -0.266860        -0.140441
 C         1.332433         0.015499         0.082131
 C         1.991024        -0.515162         1.378485
 C         3.582520        -0.345633         1.018656
 C         3.309686         0.316615        -0.375210
 C         3.633161         1.409893        -1.395244
 O         2.502030         2.229444        -1.210059
 C         2.177438         1.396376         0.063546
 O         2.286730        -0.562862        -0.927547
 H        -0.058580        -1.265654        -0.573018
 H        -0.777876        -0.288659         0.613807
 H        -0.500756         0.326751        -0.940592
 H         1.992805         0.090099         2.244982
 H         1.647046        -1.457587         1.713919
 H         4.150643         0.359256         1.729039
 H         4.129267        -1.271609         1.072466
 H         4.620423         1.926107        -1.362257
 H         3.606568         0.935801        -2.356695
 H         2.232287         1.964638         0.971037
