19
Iteration:  4049charge 0 multiplicity 1
 C        -0.029341        -0.224677        -0.291826
 C         1.317524         0.126100         0.129175
 C         1.953972         0.407536         1.611346
 C         3.411915         0.301517         1.379670
 C         3.300216         0.252808        -0.224414
 C         3.923509         0.783384        -1.560285
 O         2.535542         1.582091        -1.811239
 C         2.128239         1.324954        -0.444498
 O         2.282972        -0.827754        -0.308739
 H        -0.123982        -1.319586        -0.259749
 H        -0.750192         0.025810         0.424224
 H        -0.359504         0.227841        -1.197423
 H         1.630928         1.288812         2.055930
 H         1.551294        -0.460376         2.183388
 H         4.012254         1.181642         1.699182
 H         3.783112        -0.558185         1.908172
 H         4.668718         1.588643        -1.282744
 H         4.043411         0.090749        -2.485342
 H         1.926448         2.284068         0.177533
