19
Iteration:   773charge 0 multiplicity 1
 C        -0.163909        -0.142606        -0.124309
 C         1.332956        -0.028347         0.091160
 C         2.085882        -0.608551         1.337853
 C         3.637849        -0.274538         0.946626
 C         3.296981         0.299757        -0.372959
 C         3.835473         1.465849        -1.244216
 O         2.370499         2.091701        -1.226444
 C         2.137980         1.302827        -0.014418
 O         2.286437        -0.536388        -0.925232
 H        -0.732838        -1.006881         0.237485
 H        -0.631284         0.749431         0.381852
 H        -0.490336         0.039690        -1.168589
 H         1.841709        -0.113025         2.263178
 H         1.964670        -1.702348         1.489361
 H         4.106482         0.532810         1.526710
 H         4.345861        -1.110331         1.002107
 H         4.481585         2.280939        -0.738747
 H         4.043163         1.391035        -2.360704
 H         2.145310         1.980382         0.848591
