19
Iteration:  4729
 C        -0.151042        -0.196397        -0.160542
 C         1.365785         0.204327         0.097613
 C         1.915552         0.234170         1.587241
 C         3.435543         0.253939         1.334698
 C         3.284810         0.358202        -0.152507
 C         3.847900         0.749916        -1.512338
 O         2.588929         1.504585        -1.792479
 C         2.117440         1.414476        -0.364711
 O         2.364052        -0.734730        -0.498311
 H        -0.572676        -0.703532         0.652670
 H        -0.677741         0.736224        -0.548831
 H        -0.108274        -0.929187        -0.992906
 H         1.447949         1.095824         2.226737
 H         1.631211        -0.778540         1.933190
 H         3.898941         1.206073         1.551514
 H         4.174698        -0.519516         1.694685
 H         4.798682         1.235306        -1.501460
 H         3.963369        -0.153159        -2.120287
 H         1.956492         2.353436         0.295129
