19
Iteration:  3516
 C        -0.166221        -0.179943        -0.210351
 C         1.361058         0.064784         0.097284
 C         1.965554         0.071671         1.589606
 C         3.493454         0.145707         1.252115
 C         3.185068         0.354789        -0.236513
 C         3.823846         0.964784        -1.527762
 O         2.622320         1.733829        -1.663411
 C         2.087750         1.325580        -0.308551
 O         2.350490        -0.756670        -0.517284
 H        -0.567381         0.669673        -0.763233
 H        -0.154067        -1.105831        -0.767703
 H        -0.582427        -0.387783         0.725637
 H         1.520162         0.932926         2.263188
 H         1.679038        -0.856311         2.103415
 H         4.070650         0.945735         1.735723
 H         3.956620        -0.851708         1.430376
 H         4.703924         1.594137        -1.295060
 H         4.099416         0.331095        -2.281900
 H         2.252209         2.212737         0.361371
