19
Iteration:   479charge 0 multiplicity 1
 C        -0.071275        -0.161479        -0.152630
 C         1.347510        -0.013001         0.132542
 C         2.004113        -0.579074         1.400830
 C         3.581176        -0.368519         0.918305
 C         3.274386         0.393592        -0.313373
 C         3.734095         1.480463        -1.426791
 O         2.409677         2.111408        -1.228992
 C         2.151386         1.325443         0.035523
 O         2.366400        -0.531696        -0.868908
 H        -0.380659        -1.015557        -0.726985
 H        -0.762462        -0.263290         0.659003
 H        -0.417577         0.606652        -0.831506
 H         1.856170        -0.093782         2.379675
 H         1.578660        -1.566089         1.468048
 H         4.193149         0.232048         1.640095
 H         4.096639        -1.260602         0.849901
 H         4.514966         2.104975        -0.914795
 H         4.038776         1.127191        -2.459240
 H         2.155451         2.031737         0.865283
