19
Iteration:  3042
 C        -0.050092        -0.225404        -0.094682
 C         1.385438         0.106199         0.038020
 C         1.984931        -0.248998         1.496759
 C         3.555115        -0.218984         1.177172
 C         3.285738         0.356248        -0.258304
 C         3.829474         1.199012        -1.342930
 O         2.478296         1.908739        -1.529607
 C         2.108204         1.399177        -0.157404
 O         2.238107        -0.589641        -0.811197
 H        -0.714240         0.336163         0.585703
 H        -0.488254         0.066882        -1.122079
 H        -0.188686        -1.339943        -0.086522
 H         1.781767         0.479214         2.250284
 H         1.746428        -1.293735         1.838276
 H         4.023716         0.600289         1.755483
 H         4.184916        -1.077732         1.252268
 H         4.478726         1.962315        -1.169213
 H         4.101723         0.651019        -2.259766
 H         1.971724         2.202055         0.592216
