19
Iteration:  3412
 C        -0.136224        -0.050622        -0.110419
 C         1.311090         0.088277         0.142244
 C         1.918270        -0.111973         1.536741
 C         3.499472         0.125031         1.266727
 C         3.283492         0.354846        -0.229284
 C         3.964587         1.147905        -1.462244
 O         2.457397         1.552572        -1.738920
 C         2.126755         1.285316        -0.251462
 O         2.348462        -0.697584        -0.640958
 H        -0.365529        -0.897047        -0.743784
 H        -0.747389        -0.166342         0.807424
 H        -0.397065         0.899054        -0.741814
 H         1.611692         0.620616         2.240682
 H         1.760438        -1.225902         1.902375
 H         3.781406         0.959314         1.940637
 H         4.270183        -0.615989         1.405266
 H         4.480205         1.967429        -1.006655
 H         4.520070         0.571870        -2.302066
 H         2.129220         2.221732         0.353605
