19
Iteration:  1403charge 0 multiplicity 1
 C        -0.050312        -0.234277        -0.266361
 C         1.351544         0.103851         0.139576
 C         2.094011        -0.638298         1.351721
 C         3.637155        -0.380877         0.921006
 C         3.250737         0.485464        -0.253862
 C         3.641927         1.379318        -1.394472
 O         2.474281         2.143820        -1.207484
 C         2.166795         1.394221         0.111609
 O         2.256353        -0.535932        -0.849632
 H        -0.409181        -1.213985         0.017168
 H        -0.833250         0.426110         0.103144
 H        -0.100765        -0.122055        -1.339988
 H         1.826745        -0.079784         2.321045
 H         1.636645        -1.683744         1.241594
 H         4.061047         0.290950         1.636378
 H         4.252848        -1.301740         0.751236
 H         4.658208         1.853035        -1.183514
 H         3.539351         0.754948        -2.387430
 H         2.123093         2.151258         0.945970
