19
Iteration:  4530charge 0 multiplicity 1
 C        -0.135899        -0.142008        -0.131004
 C         1.324043         0.200547         0.150723
 C         1.831505         0.141036         1.648438
 C         3.371988         0.268862         1.408258
 C         3.308013         0.444598        -0.158955
 C         3.935088         0.814232        -1.558400
 O         2.503006         1.273606        -1.869397
 C         2.184340         1.371980        -0.464427
 O         2.433453        -0.597706        -0.493007
 H        -0.360987        -1.194710         0.037518
 H        -0.524207         0.363775         0.713641
 H        -0.397804         0.159008        -1.100284
 H         1.648758         0.967916         2.375965
 H         1.469876        -0.845209         1.974925
 H         3.859578         1.049220         1.876226
 H         3.755025        -0.732347         1.608043
 H         4.609541         1.790057        -1.468506
 H         4.361639         0.137838        -2.327288
 H         2.316659         2.378139        -0.139704
