19
Iteration:   614
 C        -0.046870        -0.216248        -0.186735
 C         1.396417         0.124648         0.155594
 C         2.092197        -0.588170         1.309761
 C         3.575401        -0.446511         0.980992
 C         3.281762         0.486822        -0.313892
 C         3.696798         1.405193        -1.377094
 O         2.395068         2.020139        -1.303238
 C         2.103943         1.435143         0.071595
 O         2.297479        -0.490417        -0.800117
 H        -0.037893        -1.260565        -0.208126
 H        -0.602338         0.233587         0.596315
 H        -0.273710         0.229566        -1.112839
 H         1.784400        -0.476746         2.321257
 H         1.742612        -1.629844         1.034379
 H         4.090993        -0.118702         1.857715
 H         4.082049        -1.416802         0.653096
 H         4.502717         2.163464        -0.941504
 H         3.937716         1.111806        -2.393784
 H         2.039946         2.389972         0.663631
