19
Iteration:  2434charge 0 multiplicity 1
 C        -0.137253        -0.119309        -0.039980
 C         1.422996         0.042007         0.024843
 C         2.067464        -0.492019         1.355561
 C         3.583386        -0.306442         1.046236
 C         3.292060         0.304589        -0.343445
 C         3.763699         1.424044        -1.254392
 O         2.399405         2.008554        -1.381723
 C         2.095136         1.393380        -0.054810
 O         2.311957        -0.589660        -0.909129
 H        -0.571804         0.739091        -0.556629
 H        -0.274408        -1.138096        -0.517602
 H        -0.544182        -0.340855         0.943251
 H         1.617775         0.278639         2.130675
 H         1.835598        -1.580830         1.711702
 H         3.956795         0.356358         1.919459
 H         4.094343        -1.233942         0.843576
 H         4.483668         2.081674        -0.731058
 H         4.372882         1.080766        -2.145172
 H         2.142058         2.201471         0.730500
