19
Iteration:  3355charge 0 multiplicity 1
 C        -0.067279        -0.320887        -0.212762
 C         1.273224         0.144549         0.143824
 C         1.922648        -0.043056         1.605627
 C         3.501197        -0.033243         1.286388
 C         3.289332         0.384396        -0.163035
 C         3.772120         0.979896        -1.592209
 O         2.592302         1.806187        -1.651625
 C         2.172611         1.503777        -0.240106
 O         2.319212        -0.641999        -0.618280
 H        -0.295251        -1.268272         0.355026
 H        -0.848833         0.471743        -0.028964
 H        -0.198652        -0.532852        -1.313894
 H         1.534421         0.645329         2.392216
 H         1.839962        -0.988606         2.061249
 H         4.091883         0.694298         1.907152
 H         3.858589        -1.097435         1.247726
 H         4.699161         1.626532        -1.788211
 H         3.883909         0.141041        -2.259027
 H         2.035328         2.396334         0.306240
