19
Iteration:  4559
 C        -0.071182        -0.090333        -0.120360
 C         1.287702         0.220738         0.098452
 C         1.918774         0.154963         1.594559
 C         3.499909         0.313230         1.396383
 C         3.285064         0.469529        -0.126999
 C         3.927632         0.842294        -1.456400
 O         2.585086         1.331765        -1.887071
 C         2.065777         1.351768        -0.525656
 O         2.269692        -0.785242        -0.456965
 H        -0.121125        -1.209175        -0.438312
 H        -0.557054        -0.035977         0.873604
 H        -0.612125         0.518366        -0.946368
 H         1.729506         0.906465         2.328083
 H         1.422488        -0.821080         1.937155
 H         4.044536         1.223769         1.935899
 H         4.112954        -0.589587         1.666300
 H         4.613966         1.594714        -1.349954
 H         4.301525         0.116221        -2.166936
 H         1.972736         2.482014        -0.167588
