19
Iteration:  4816
 C        -0.158225        -0.024049        -0.072128
 C         1.377888         0.159802         0.122195
 C         1.853261         0.209471         1.630323
 C         3.358190         0.287453         1.348219
 C         3.292560         0.261644        -0.214715
 C         3.885562         0.941279        -1.495815
 O         2.625533         1.488703        -1.855976
 C         2.149544         1.229507        -0.506226
 O         2.417774        -0.862719        -0.463995
 H        -0.461843        -1.070910        -0.017236
 H        -0.785651         0.470192         0.782663
 H        -0.663868         0.332646        -1.038271
 H         1.356676         1.071081         2.117493
 H         1.546252        -0.672901         2.200069
 H         3.851492         1.196875         1.701592
 H         4.136919        -0.497966         1.628296
 H         4.492877         1.722531        -1.141425
 H         4.302717         0.440326        -2.395098
 H         1.984991         2.280966         0.025312
