19
Iteration:  3427
 C        -0.135472        -0.046890        -0.101833
 C         1.366858         0.134982         0.144945
 C         1.954989        -0.195752         1.584650
 C         3.467670         0.036553         1.237316
 C         3.317072         0.452474        -0.194736
 C         3.870822         1.121682        -1.386640
 O         2.508337         1.504640        -1.773714
 C         2.106753         1.446649        -0.376267
 O         2.373590        -0.688552        -0.609570
 H        -0.300868        -0.876079        -0.833246
 H        -0.647746        -0.365023         0.820406
 H        -0.733035         0.744225        -0.411019
 H         1.504570         0.446426         2.418315
 H         1.631172        -1.310600         1.919666
 H         3.908254         0.903222         1.701451
 H         3.947852        -0.928726         1.454150
 H         4.513381         2.009755        -1.278757
 H         4.341693         0.530822        -2.142574
 H         1.893927         2.476466         0.081011
