19
Iteration:  3962charge 0 multiplicity 1
 C        -0.183861        -0.133667        -0.119501
 C         1.326429         0.204565         0.130994
 C         1.870745         0.187433         1.603861
 C         3.436975         0.361805         1.365644
 C         3.246945         0.377081        -0.193989
 C         3.940438         0.849023        -1.424296
 O         2.644643         1.331575        -1.849577
 C         2.082548         1.376415        -0.514952
 O         2.381317        -0.791298        -0.483522
 H        -0.333028        -1.225027        -0.199163
 H        -0.685551         0.342843         0.694447
 H        -0.546692         0.290976        -1.045793
 H         1.591647         0.975703         2.331410
 H         1.623034        -0.819316         2.117722
 H         3.860166         1.301757         1.724294
 H         4.052568        -0.412202         1.721127
 H         4.633728         1.682923        -1.361072
 H         4.368556         0.141897        -2.166858
 H         1.930988         2.476422        -0.172246
