19
Iteration:  1416charge 0 multiplicity 1
 C        -0.110364        -0.177498        -0.232145
 C         1.382087        -0.008042         0.085259
 C         2.120080        -0.526047         1.389538
 C         3.655032        -0.325394         1.045053
 C         3.308603         0.337458        -0.293834
 C         3.671732         1.351396        -1.347759
 O         2.405985         2.192155        -1.179416
 C         2.133647         1.353375         0.055920
 O         2.218408        -0.527875        -0.993746
 H        -0.476280        -1.168733         0.003574
 H        -0.664609         0.657202         0.189100
 H        -0.061620        -0.082262        -1.320102
 H         1.899892        -0.215971         2.391006
 H         1.999487        -1.625073         1.416843
 H         4.291701         0.246606         1.784971
 H         4.115879        -1.314645         0.912876
 H         4.471301         2.090894        -1.158229
 H         3.857265         0.893669        -2.352861
 H         2.186395         1.939280         0.974485
