19
Iteration:   851
 C        -0.030379        -0.266015        -0.202846
 C         1.408720         0.060469         0.132454
 C         2.122503        -0.542056         1.381343
 C         3.630878        -0.453754         0.945405
 C         3.256620         0.420450        -0.234667
 C         3.688377         1.297404        -1.322353
 O         2.410410         2.089383        -1.256019
 C         2.122054         1.438327         0.033620
 O         2.206326        -0.359834        -0.932796
 H        -0.284422        -1.241971         0.288993
 H        -0.801435         0.542629         0.019132
 H        -0.134470        -0.489662        -1.281190
 H         1.980390        -0.199694         2.365039
 H         1.617532        -1.583756         1.452098
 H         4.148738         0.053914         1.743822
 H         4.301298        -1.319791         0.666101
 H         4.505302         2.116602        -1.031398
 H         3.967017         0.972525        -2.386777
 H         1.988716         2.134984         0.885805
