19
Iteration:  4194
 C        -0.124568        -0.260998        -0.255699
 C         1.349116         0.237384         0.149754
 C         1.894352         0.221027         1.724751
 C         3.408165         0.189924         1.387398
 C         3.297997         0.459712        -0.179334
 C         3.882861         0.733329        -1.558318
 O         2.564580         1.494141        -1.890067
 C         2.186260         1.452025        -0.455033
 O         2.325379        -0.705523        -0.367034
 H        -0.126187        -1.310935        -0.002199
 H        -1.033483         0.167097         0.093945
 H        -0.241209        -0.274276        -1.357100
 H         1.672541         1.085221         2.323323
 H         1.612627        -0.635844         2.193909
 H         4.001820         0.893748         1.877141
 H         3.918874        -0.755646         1.720434
 H         4.788908         1.461451        -1.646588
 H         3.896722        -0.094566        -2.246425
 H         2.090614         2.544742        -0.110885
