19
Iteration:     2charge 0 multiplicity 1
 C        -0.082587        -0.195091        -0.160297
 C         1.395476         0.010711         0.051480
 C         2.108948        -0.751700         1.240743
 C         3.623500        -0.488330         0.853958
 C         3.266489         0.414141        -0.318325
 C         3.688335         1.534993        -1.270174
 O         2.388041         2.175396        -1.026056
 C         2.156550         1.338504         0.141257
 O         2.256376        -0.389555        -1.032662
 H        -0.605199         0.126946         0.718756
 H        -0.401542         0.409143        -1.021076
 H        -0.269362        -1.265169        -0.348987
 H         1.883813        -0.312882         2.250995
 H         1.872189        -1.790004         1.253366
 H         4.191794         0.022691         1.671530
 H         4.150352        -1.376417         0.556871
 H         4.538971         2.165264        -0.915827
 H         3.855439         1.268191        -2.292104
 H         2.134045         1.935942         1.098513
