19
Iteration:  4368charge 0 multiplicity 1
 C        -0.091135        -0.105338        -0.204472
 C         1.385279         0.074250         0.090157
 C         1.876299         0.249737         1.696397
 C         3.466513         0.357211         1.318171
 C         3.311715         0.325383        -0.177636
 C         3.872560         0.851686        -1.505784
 O         2.568747         1.483748        -1.783064
 C         2.125083         1.316225        -0.378136
 O         2.314280        -0.845663        -0.516029
 H        -0.695791        -0.630512         0.528308
 H        -0.639370         0.870829        -0.257654
 H        -0.293720        -0.613531        -1.135901
 H         1.458169         1.182816         2.118484
 H         1.629476        -0.601564         2.269916
 H         3.817394         1.328251         1.626394
 H         4.056294        -0.466599         1.806335
 H         4.664615         1.488862        -1.351782
 H         4.097963         0.129532        -2.257880
 H         1.975036         2.344473        -0.134114
