19
Iteration:  3338charge 0 multiplicity 1
 C        -0.042521        -0.335793        -0.151894
 C         1.376518         0.221790         0.095609
 C         1.954651        -0.065784         1.638765
 C         3.441499        -0.110792         1.301960
 C         3.301986         0.429857        -0.221817
 C         3.812015         0.968786        -1.527239
 O         2.529557         1.767546        -1.646598
 C         2.132141         1.446655        -0.312598
 O         2.282997        -0.535174        -0.664777
 H        -0.442407        -0.935398         0.663806
 H        -0.855761         0.364239        -0.275692
 H         0.042836        -0.970907        -1.041702
 H         1.773547         0.823553         2.217226
 H         1.448258        -1.174699         1.909432
 H         3.998770         0.600032         1.886236
 H         4.052427        -0.989754         1.366538
 H         4.732921         1.517655        -1.197013
 H         3.888505         0.113703        -2.331537
 H         2.192434         2.380838         0.399370
