19
Iteration:  4130charge 0 multiplicity 1
 C        -0.173404        -0.070559        -0.075536
 C         1.306771         0.097334         0.162877
 C         1.893543         0.095712         1.580939
 C         3.405103         0.350437         1.255754
 C         3.300093         0.375366        -0.155983
 C         3.969632         0.921523        -1.453327
 O         2.605406         1.376814        -1.873092
 C         2.144740         1.273822        -0.537885
 O         2.343326        -0.692419        -0.422993
 H        -0.668304        -0.523154         0.784724
 H        -0.657753         0.940862        -0.293736
 H        -0.364569        -0.783411        -0.913990
 H         1.439192         0.841230         2.353516
 H         1.622157        -0.892825         1.902038
 H         3.706941         1.293521         1.698646
 H         4.031517        -0.514314         1.667449
 H         4.655120         1.697585        -1.176583
 H         4.448015         0.288795        -2.154816
 H         2.004440         2.253237         0.034220
