19
Iteration:  3846
 C        -0.151752        -0.052895        -0.065392
 C         1.338927         0.145614         0.069312
 C         1.875983         0.100186         1.608651
 C         3.374453         0.343464         1.315723
 C         3.337980         0.293242        -0.136481
 C         3.837498         0.959770        -1.471807
 O         2.644663         1.410140        -1.871571
 C         2.200131         1.400173        -0.508022
 O         2.329168        -0.840906        -0.463796
 H        -0.843307        -0.022120         0.868007
 H        -0.573748         0.529751        -0.876740
 H        -0.365442        -1.128098        -0.353666
 H         1.372347         0.902883         2.219914
 H         1.591379        -0.793144         1.987606
 H         3.826275         1.284816         1.698290
 H         4.033924        -0.491532         1.770681
 H         4.668317         1.783322        -1.105243
 H         4.410043         0.266128        -2.091114
 H         2.094877         2.358739        -0.011556
