19
Iteration:  3996charge 0 multiplicity 1
 C        -0.062020        -0.133395        -0.073828
 C         1.313362         0.236545         0.070413
 C         1.822835         0.063525         1.628973
 C         3.389279         0.331249         1.433603
 C         3.325997         0.496916        -0.123298
 C         3.858092         0.811966        -1.510334
 O         2.651134         1.261014        -1.893211
 C         2.154687         1.460579        -0.546597
 O         2.362582        -0.714406        -0.462115
 H        -0.222821        -1.204338        -0.386922
 H        -0.554500        -0.093809         0.869282
 H        -0.595201         0.542771        -0.748219
 H         1.395711         0.900792         2.292104
 H         1.338526        -0.895958         1.912533
 H         3.691014         1.238467         1.892140
 H         4.014586        -0.465265         1.734647
 H         4.588111         1.609756        -1.632622
 H         4.099368        -0.064634        -2.061367
 H         1.957698         2.554650        -0.246321
