19
Iteration:  1151charge 0 multiplicity 1
 C        -0.122248        -0.231287        -0.164548
 C         1.394419         0.054990         0.111498
 C         2.120431        -0.675588         1.356526
 C         3.552347        -0.323793         0.974798
 C         3.293311         0.469718        -0.260061
 C         3.763684         1.310715        -1.340082
 O         2.379892         2.071688        -1.274650
 C         2.134463         1.388296         0.063523
 O         2.287131        -0.363804        -0.982096
 H        -0.298743        -1.278973        -0.508372
 H        -0.643734         0.030524         0.801474
 H        -0.471425         0.508957        -0.904840
 H         1.868745        -0.141739         2.269937
 H         1.953410        -1.723085         1.461203
 H         3.939430         0.291698         1.832206
 H         4.138121        -1.310250         1.116343
 H         4.704172         1.699809        -1.053950
 H         3.917836         0.755908        -2.288523
 H         2.125796         2.041322         0.970785
