19
Iteration:  1351charge 0 multiplicity 1
 C        -0.097726        -0.207773        -0.092489
 C         1.345300         0.042528         0.027707
 C         2.053096        -0.560607         1.323825
 C         3.585138        -0.343084         0.941169
 C         3.279367         0.404991        -0.320766
 C         3.816858         1.434998        -1.282849
 O         2.404446         2.023800        -1.183083
 C         2.140144         1.379178         0.001489
 O         2.295630        -0.501718        -0.979481
 H        -0.342907        -1.257367        -0.366958
 H        -0.473875        -0.073380         0.956793
 H        -0.581925         0.527608        -0.796329
 H         1.820757         0.089004         2.146154
 H         1.702174        -1.583887         1.570354
 H         4.186034         0.315826         1.674299
 H         3.962222        -1.396832         0.846074
 H         4.406417         2.103075        -0.706382
 H         4.195200         1.137872        -2.238289
 H         2.004420         2.088598         0.826375
