19
Iteration:  1042
 C        -0.110080        -0.198359        -0.061846
 C         1.327601         0.103159         0.144476
 C         2.075718        -0.724827         1.289435
 C         3.591652        -0.373290         1.024932
 C         3.286557         0.414144        -0.289953
 C         3.780025         1.506792        -1.323062
 O         2.460212         2.125126        -1.374506
 C         2.164171         1.398660        -0.010188
 O         2.243142        -0.479189        -0.907728
 H        -0.314563        -1.225862         0.373112
 H        -0.954901         0.374601         0.412539
 H        -0.348483        -0.336984        -1.156003
 H         1.773272        -0.690255         2.358870
 H         1.881997        -1.743707         1.001598
 H         3.992102         0.201614         1.917985
 H         4.050221        -1.397081         1.017353
 H         4.656783         2.084530        -0.803941
 H         4.188974         0.995165        -2.244275
 H         1.978944         2.007903         0.840637
