19
Iteration:  4809
 C        -0.172950        -0.028505        -0.072106
 C         1.341555         0.115794         0.080629
 C         1.875797         0.216432         1.515589
 C         3.412555         0.281141         1.352724
 C         3.283132         0.295229        -0.197674
 C         3.913414         0.968642        -1.514444
 O         2.613607         1.464878        -1.847738
 C         2.108393         1.309180        -0.423328
 O         2.405323        -0.893034        -0.457813
 H        -0.459351        -1.065855         0.235220
 H        -0.622842         0.499301         0.720109
 H        -0.617380         0.221920        -1.031401
 H         1.503789         1.211281         1.983684
 H         1.479914        -0.582627         2.272052
 H         3.873583         1.227021         1.718923
 H         3.911637        -0.627968         1.645545
 H         4.654841         1.736345        -1.094341
 H         4.396207         0.200509        -2.148790
 H         1.989982         2.206411         0.173131
