19
Iteration:   236charge 0 multiplicity 1
 C        -0.054705        -0.156001        -0.109244
 C         1.403639        -0.103592         0.049178
 C         2.104145        -0.587331         1.336479
 C         3.614768        -0.303682         0.892046
 C         3.239513         0.369337        -0.355766
 C         3.791776         1.501858        -1.143166
 O         2.394440         2.092982        -1.187462
 C         2.132230         1.301309         0.041824
 O         2.198653        -0.507445        -1.077382
 H        -0.496385         0.809639         0.208669
 H        -0.473754        -0.446241        -1.068136
 H        -0.593732        -0.770439         0.593999
 H         1.742105        -0.055423         2.199693
 H         1.966205        -1.718521         1.561799
 H         4.074774         0.288795         1.658712
 H         4.189605        -1.292814         0.640753
 H         4.359494         2.229912        -0.508824
 H         4.454221         1.413061        -2.044481
 H         2.053063         2.014519         0.943711
