19
Iteration:   146charge 0 multiplicity 1
 C        -0.177052        -0.193210        -0.178540
 C         1.341392        -0.050412         0.070069
 C         2.150385        -0.668064         1.334363
 C         3.637575        -0.360579         0.886439
 C         3.261580         0.411799        -0.354079
 C         3.691831         1.531863        -1.239756
 O         2.441294         2.141249        -1.062726
 C         2.199982         1.298529         0.121175
 O         2.229369        -0.486506        -1.075432
 H        -0.331387        -0.580791        -1.207718
 H        -0.595184        -0.926969         0.536036
 H        -0.740793         0.763641        -0.149365
 H         1.942933        -0.002391         2.217073
 H         1.893220        -1.713096         1.470049
 H         4.089764         0.367373         1.610638
 H         4.356642        -1.195784         0.668130
 H         4.562895         2.190495        -0.976458
 H         3.984747         1.337210        -2.260851
 H         2.378999         1.753566         1.121579
