19
Iteration:  3891charge 0 multiplicity 1
 C        -0.061721        -0.245905        -0.207489
 C         1.311173         0.182434         0.163752
 C         1.922223         0.199638         1.610004
 C         3.444967         0.223679         1.385410
 C         3.244214         0.482380        -0.123837
 C         3.844093         0.694063        -1.462635
 O         2.582221         1.448592        -1.810076
 C         2.157517         1.532634        -0.503721
 O         2.323156        -0.706041        -0.498972
 H        -0.496100        -0.660599         0.727819
 H        -0.485059         0.699414        -0.625231
 H        -0.028241        -1.071245        -0.985445
 H         1.392323         1.016679         2.145737
 H         1.655632        -0.656549         2.113002
 H         3.979841         1.006482         1.998110
 H         3.987841        -0.769847         1.689833
 H         4.806133         1.408193        -1.622235
 H         3.922924        -0.175977        -2.198741
 H         1.979155         2.580531        -0.144275
