19
Iteration:  3478
 C        -0.034146        -0.306328        -0.183732
 C         1.285728         0.131280         0.112880
 C         1.921579         0.094450         1.606579
 C         3.470203         0.113161         1.301233
 C         3.240878         0.340817        -0.261537
 C         3.776502         0.934712        -1.535425
 O         2.606040         1.748076        -1.627850
 C         2.210446         1.370633        -0.287658
 O         2.308950        -0.688111        -0.622541
 H        -0.400127        -0.232055        -1.214836
 H        -0.318996        -1.311033         0.180513
 H        -0.777603         0.366463         0.402797
 H         1.575415         0.870264         2.206823
 H         1.651966        -0.912286         2.047155
 H         3.969450         0.990589         1.737228
 H         3.871417        -0.870945         1.525128
 H         4.633853         1.615775        -1.383070
 H         3.977779         0.291698        -2.502852
 H         2.274745         2.179827         0.469189
