19
Iteration:  4059
 C        -0.040630        -0.239803        -0.240100
 C         1.358965         0.199309         0.123326
 C         1.872799         0.366246         1.608830
 C         3.467819         0.311925         1.318933
 C         3.286699         0.266567        -0.135615
 C         3.798612         0.814806        -1.518438
 O         2.549077         1.585582        -1.825549
 C         2.166660         1.249598        -0.470558
 O         2.317498        -0.799735        -0.354627
 H        -0.174548        -1.317058        -0.199022
 H        -0.699638         0.332177         0.379864
 H        -0.185478         0.009283        -1.277877
 H         1.521643         1.246161         1.983072
 H         1.533430        -0.489298         2.265421
 H         4.065565         1.106512         1.841258
 H         3.714534        -0.657725         1.726607
 H         4.719854         1.486698        -1.437892
 H         4.179037        -0.072700        -2.170375
 H         2.078538         2.240664         0.028482
