19
Iteration:  1632charge 0 multiplicity 1
 C        -0.090278        -0.176967        -0.062960
 C         1.412197        -0.027787        -0.012056
 C         2.059401        -0.558977         1.356524
 C         3.584077        -0.315000         1.005701
 C         3.250385         0.456333        -0.260488
 C         3.764054         1.400912        -1.319348
 O         2.419646         2.060870        -1.277280
 C         2.088901         1.330554        -0.004337
 O         2.334285        -0.485073        -0.973084
 H        -0.500672        -1.113675         0.372939
 H        -0.498331         0.447933         0.812421
 H        -0.616877         0.164243        -0.987937
 H         1.729513        -0.165079         2.383574
 H         1.861288        -1.659418         1.361706
 H         4.206794         0.260556         1.666715
 H         4.065804        -1.302791         0.790497
 H         4.495597         2.043585        -0.899906
 H         3.949408         0.815201        -2.249755
 H         1.967945         2.097808         0.804884
