19
Iteration:  3467charge 0 multiplicity 1
 C        -0.134475        -0.310016        -0.128709
 C         1.379957         0.172019         0.131277
 C         1.878021         0.000227         1.617481
 C         3.408045         0.068632         1.226053
 C         3.312325         0.379628        -0.189064
 C         3.823105         0.982199        -1.507490
 O         2.578626         1.659520        -1.662220
 C         2.188606         1.453075        -0.297437
 O         2.332723        -0.652800        -0.655343
 H        -0.102866        -0.427077        -1.213185
 H        -0.348088        -1.221330         0.446846
 H        -0.744847         0.613727         0.160735
 H         1.694789         0.760495         2.300314
 H         1.587017        -0.952214         2.161757
 H         3.889275         0.847172         1.842291
 H         4.070511        -0.779673         1.346579
 H         4.713307         1.611126        -1.519769
 H         3.876299         0.127155        -2.334530
 H         2.066260         2.455231         0.154388
