19
Iteration:  4014
 C        -0.112464        -0.173285        -0.177535
 C         1.358819         0.168157         0.136936
 C         1.871359         0.273344         1.575863
 C         3.402951         0.336239         1.403521
 C         3.290905         0.396005        -0.166117
 C         3.944381         0.710074        -1.438580
 O         2.529711         1.393467        -1.871410
 C         2.128023         1.347344        -0.449331
 O         2.354387        -0.667204        -0.465275
 H        -0.083969        -1.160695        -0.592171
 H        -0.656890        -0.147701         0.790125
 H        -0.558774         0.418108        -0.965705
 H         1.476130         0.983546         2.207167
 H         1.757335        -0.730759         2.078196
 H         3.951025         1.268449         1.778188
 H         3.922026        -0.576633         1.744293
 H         4.783790         1.466463        -1.536292
 H         4.240472        -0.115753        -2.220979
 H         1.964763         2.362187        -0.022877
