19
Iteration:  4922charge 0 multiplicity 1
 C        -0.179738        -0.182888        -0.137742
 C         1.367085         0.090854         0.085769
 C         1.928118         0.278566         1.558944
 C         3.511097         0.329948         1.339543
 C         3.254354         0.310755        -0.210998
 C         3.824913         0.839597        -1.396392
 O         2.604696         1.515312        -1.781829
 C         2.139330         1.321393        -0.417288
 O         2.288284        -0.806460        -0.538831
 H        -0.494391        -0.943041         0.521109
 H        -0.777593         0.724607         0.102456
 H        -0.303480        -0.517932        -1.147302
 H         1.792793         1.310596         1.932456
 H         1.785853        -0.446398         2.337080
 H         4.029517         1.201511         1.648209
 H         4.025794        -0.629310         1.574432
 H         4.605510         1.683610        -1.068124
 H         4.325543         0.261550        -2.199195
 H         2.127932         2.228386         0.054250
