19
Iteration:  4759
 C        -0.069652        -0.339723        -0.141633
 C         1.334248         0.297102         0.215714
 C         1.862036         0.170757         1.705843
 C         3.397260         0.128484         1.381773
 C         3.290389         0.413736        -0.158941
 C         3.917396         0.789015        -1.553766
 O         2.610899         1.475516        -1.960749
 C         2.213340         1.488833        -0.462785
 O         2.224665        -0.606962        -0.440918
 H        -0.538280        -1.011563         0.611401
 H        -0.858061         0.458315        -0.425952
 H         0.105472        -0.857220        -1.083051
 H         1.504601         0.880951         2.401829
 H         1.589204        -0.795443         1.979486
 H         3.891243         1.004054         1.782295
 H         3.991468        -0.803150         1.499716
 H         4.748007         1.453989        -1.455955
 H         4.153224        -0.040816        -2.214376
 H         2.252050         2.526354        -0.012823
