19
Iteration:  4874
 C        -0.076427        -0.218828        -0.221571
 C         1.369925         0.227725         0.187759
 C         1.896299         0.171869         1.672329
 C         3.452865         0.179194         1.437207
 C         3.288123         0.462296        -0.148868
 C         3.885080         0.677131        -1.520601
 O         2.518891         1.450717        -1.944240
 C         2.137281         1.458762        -0.400852
 O         2.345126        -0.604177        -0.450775
 H        -0.144001        -1.350050        -0.347583
 H        -0.699943         0.098460         0.581657
 H        -0.357819         0.334174        -1.132596
 H         1.291874         0.973434         2.240228
 H         1.624013        -0.940179         1.956996
 H         4.046668         1.004091         1.912559
 H         3.894527        -0.787051         1.539904
 H         4.656733         1.361215        -1.797457
 H         3.979677        -0.206645        -2.150178
 H         1.998699         2.558936        -0.055301
