19
Iteration:  4053
 C        -0.012374        -0.239625        -0.274499
 C         1.325074         0.169987         0.127574
 C         1.948801         0.370489         1.609604
 C         3.438041         0.320667         1.333884
 C         3.300958         0.240663        -0.162385
 C         3.881335         0.796859        -1.561030
 O         2.527553         1.602483        -1.820274
 C         2.139967         1.267587        -0.459658
 O         2.290891        -0.805023        -0.321583
 H        -0.166178        -1.352756        -0.250999
 H        -0.731558         0.229142         0.462504
 H        -0.324863         0.156823        -1.283410
 H         1.509125         1.404642         2.038185
 H         1.539742        -0.441854         2.150075
 H         4.017065         1.074164         1.791563
 H         3.605255        -0.611858         1.939667
 H         4.662186         1.481638        -1.321021
 H         4.128099         0.046577        -2.236146
 H         1.956812         2.214573         0.109405
