19
Iteration:  4564charge 0 multiplicity 1
 C        -0.110932        -0.121646        -0.147104
 C         1.266465         0.192984         0.055047
 C         1.982204         0.194088         1.624030
 C         3.495140         0.319643         1.386027
 C         3.286291         0.433647        -0.140809
 C         3.925200         0.804132        -1.457006
 O         2.599410         1.385847        -1.855939
 C         2.061830         1.321357        -0.532546
 O         2.269774        -0.764054        -0.448212
 H        -0.230024        -1.113563        -0.471105
 H        -0.685847         0.013370         0.769491
 H        -0.641199         0.532339        -0.763939
 H         1.565539         0.959785         2.364226
 H         1.609614        -0.698025         2.088801
 H         3.971490         1.125573         1.814507
 H         4.193407        -0.470149         1.650117
 H         4.639702         1.744608        -1.350955
 H         4.387349         0.027083        -2.105693
 H         1.957797         2.275824        -0.094645
