19
Iteration:  1996charge 0 multiplicity 1
 C        -0.110953        -0.131362        -0.157226
 C         1.395899        -0.046377         0.043234
 C         2.009120        -0.517977         1.447637
 C         3.660544        -0.288266         0.996826
 C         3.256503         0.385083        -0.327767
 C         3.711236         1.415496        -1.382694
 O         2.435320         2.059641        -1.184949
 C         2.072672         1.302613        -0.031437
 O         2.326801        -0.533240        -0.960634
 H        -0.719785        -1.024650         0.186500
 H        -0.343716         0.796249         0.438086
 H        -0.261680        -0.070627        -1.231658
 H         1.780410         0.051314         2.300117
 H         1.801978        -1.524296         1.800383
 H         4.186994         0.360710         1.804423
 H         4.302587        -1.187616         1.034402
 H         4.636471         2.029658        -1.111066
 H         4.027482         0.941929        -2.346304
 H         1.998121         1.878924         0.880989
