19
Iteration:  3488charge 0 multiplicity 1
 C        -0.106253        -0.268628        -0.197287
 C         1.392368         0.110531         0.104809
 C         1.933796         0.113084         1.569288
 C         3.498498         0.138398         1.291350
 C         3.269221         0.234703        -0.235133
 C         3.854549         0.936527        -1.547272
 O         2.549638         1.841732        -1.633817
 C         2.134950         1.383339        -0.282674
 O         2.254585        -0.754352        -0.581157
 H        -0.316129        -0.062237        -1.266020
 H         0.039198        -1.372864        -0.113907
 H        -0.886477         0.157559         0.570089
 H         1.492645         0.910213         2.081399
 H         1.605994        -0.800431         2.075626
 H         4.159368         0.922487         1.739662
 H         3.967738        -0.759843         1.736862
 H         4.760506         1.549636        -1.311465
 H         3.967297         0.168537        -2.441447
 H         2.163623         2.206734         0.422059
