19
Iteration:  4476
 C        -0.215651        -0.239076        -0.214091
 C         1.282225         0.133397         0.177276
 C         1.883819         0.267309         1.707224
 C         3.450644         0.346432         1.283264
 C         3.289610         0.278650        -0.212136
 C         3.864896         0.826396        -1.608790
 O         2.674604         1.642675        -1.797170
 C         2.191762         1.335814        -0.385049
 O         2.318822        -0.868606        -0.417583
 H        -0.598044        -0.891326         0.571006
 H        -0.850564         0.622625        -0.532113
 H        -0.001816        -0.857113        -1.063188
 H         1.547832         1.269806         2.212443
 H         1.585942        -0.569217         2.392200
 H         3.980764         1.229273         1.396856
 H         3.977351        -0.473439         1.803262
 H         4.734681         1.647593        -1.485989
 H         4.099619         0.073618        -2.394263
 H         2.213318         2.254884         0.057461
