19
Iteration:  3950charge 0 multiplicity 1
 C        -0.098579        -0.124348        -0.163268
 C         1.331243         0.096755         0.077597
 C         1.889736         0.261098         1.614371
 C         3.459541         0.332223         1.293779
 C         3.301616         0.343953        -0.116951
 C         3.864934         0.880233        -1.408836
 O         2.620109         1.417901        -1.872242
 C         2.148400         1.270383        -0.479363
 O         2.291965        -0.749071        -0.452271
 H        -0.315900        -1.141043         0.102919
 H        -0.740042         0.362238         0.565478
 H        -0.451578         0.084571        -1.154450
 H         1.413382         1.143350         1.970570
 H         1.613810        -0.671308         2.278494
 H         3.787901         1.352061         1.588136
 H         4.044639        -0.437506         1.723239
 H         4.636680         1.618713        -1.153925
 H         4.224565        -0.002185        -2.053692
 H         1.984469         2.341166         0.003462
