19
Iteration:   410charge 0 multiplicity 1
 C        -0.034297        -0.283131        -0.136161
 C         1.386680         0.106668         0.127014
 C         2.048113        -0.666110         1.391842
 C         3.576367        -0.374535         1.037938
 C         3.252450         0.478760        -0.273644
 C         3.748167         1.364348        -1.344738
 O         2.457809         2.084512        -1.388459
 C         2.163902         1.456889         0.034068
 O         2.229274        -0.439511        -0.883142
 H        -0.242704        -0.926867        -1.033146
 H        -0.626803        -0.763742         0.683226
 H        -0.622914         0.622847        -0.409164
 H         1.633564        -0.491384         2.388614
 H         1.825859        -1.718222         1.148031
 H         4.149175         0.062864         1.785378
 H         4.278738        -1.143591         0.728220
 H         4.489245         2.044476        -0.947837
 H         3.932484         0.956737        -2.321918
 H         2.039279         2.158709         0.782618
