19
Iteration:  1101charge 0 multiplicity 1
 C        -0.125847        -0.171136        -0.245149
 C         1.414159        -0.070930         0.051256
 C         2.031541        -0.507264         1.417649
 C         3.642143        -0.370380         0.972100
 C         3.205357         0.346653        -0.352625
 C         3.669989         1.460452        -1.347155
 O         2.410467         2.144981        -1.155785
 C         2.203818         1.413189         0.012790
 O         2.329622        -0.580657        -0.909244
 H        -0.393800        -1.162847        -0.603501
 H        -0.587406        -0.012780         0.743019
 H        -0.468797         0.605975        -0.925063
 H         2.018439         0.201606         2.251897
 H         1.795669        -1.572940         1.839407
 H         4.240051         0.084260         1.746043
 H         3.983952        -1.376478         0.739528
 H         4.552865         2.066881        -0.929189
 H         3.839192         1.077677        -2.382807
 H         2.228624         1.960209         0.947674
