19
Iteration:  1510
 C        -0.081105        -0.320883        -0.194980
 C         1.373812         0.140258         0.088800
 C         2.120548        -0.537631         1.402441
 C         3.581781        -0.326909         0.975225
 C         3.239756         0.394919        -0.265076
 C         3.766197         1.288422        -1.397467
 O         2.460835         2.068378        -1.193999
 C         2.163954         1.436038         0.028804
 O         2.207108        -0.419822        -0.934678
 H        -0.086363        -1.404319        -0.562148
 H        -0.671201        -0.340858         0.805015
 H        -0.690342         0.312023        -0.869340
 H         1.620405        -0.189438         2.356683
 H         1.871553        -1.634322         1.283582
 H         4.122123         0.262722         1.742699
 H         4.228918        -1.254111         0.820601
 H         4.538630         1.998398        -1.095630
 H         3.845540         0.929773        -2.466993
 H         2.099734         2.168883         0.887086
