19
Iteration:  2491charge 0 multiplicity 1
 C        -0.039094        -0.187700        -0.192837
 C         1.391442         0.108417         0.125902
 C         2.069622        -0.494937         1.441327
 C         3.587414        -0.286619         1.053964
 C         3.305552         0.352881        -0.265853
 C         3.695067         1.271867        -1.396452
 O         2.402262         2.016112        -1.300253
 C         2.128267         1.447259        -0.047647
 O         2.273630        -0.492062        -0.908879
 H        -0.637903         0.566253        -0.641101
 H        -0.005851        -0.943827        -0.917373
 H        -0.609831        -0.517136         0.736227
 H         1.538291        -0.195361         2.473225
 H         1.917881        -1.588849         1.288825
 H         4.081357         0.306911         1.836600
 H         4.266515        -1.215480         1.088881
 H         4.426390         1.999537        -1.184132
 H         3.853318         0.578092        -2.188621
 H         2.240477         2.202987         0.724999
