19
Iteration:  4322charge 0 multiplicity 1
 C         0.049214        -0.241685        -0.146205
 C         1.338618         0.258903         0.122520
 C         1.813977         0.220651         1.672827
 C         3.405139         0.227910         1.336643
 C         3.208092         0.416281        -0.147883
 C         3.848916         0.737249        -1.540367
 O         2.647348         1.452987        -1.879267
 C         2.186330         1.434470        -0.431099
 O         2.279778        -0.653923        -0.435257
 H         0.143344        -1.371273        -0.196840
 H        -0.691256        -0.124982         0.575979
 H        -0.350485        -0.003297        -1.155171
 H         1.440904         1.041076         2.308964
 H         1.521168        -0.800211         2.123369
 H         3.784473         1.073221         1.849762
 H         3.951205        -0.688939         1.522070
 H         4.617113         1.319513        -1.761448
 H         3.901503        -0.174928        -2.088588
 H         2.196368         2.390273        -0.051592
