19
Iteration:  2237charge 0 multiplicity 1
 C        -0.100402        -0.320635        -0.249484
 C         1.343819         0.074142         0.170075
 C         2.094534        -0.506414         1.422977
 C         3.541611        -0.389742         0.988871
 C         3.211818         0.399287        -0.265284
 C         3.748050         1.392025        -1.434936
 O         2.521154         2.122654        -1.235450
 C         2.170918         1.451275         0.018262
 O         2.234702        -0.500303        -0.878218
 H        -0.263941        -1.259072         0.190827
 H        -0.737147         0.311961         0.273287
 H        -0.031575        -0.261491        -1.232157
 H         1.840862        -0.068256         2.428175
 H         1.790697        -1.588606         1.321852
 H         4.261027         0.172828         1.732865
 H         4.105688        -1.230184         0.634349
 H         4.612140         1.993250        -1.343393
 H         3.685087         0.763402        -2.321827
 H         2.062817         2.124347         0.827596
