19
Iteration:  2975charge 0 multiplicity 1
 C        -0.125903        -0.090977        -0.133309
 C         1.369541         0.026548         0.041144
 C         1.972779        -0.358057         1.514775
 C         3.571585        -0.136852         1.139632
 C         3.306229         0.362569        -0.238747
 C         3.780059         1.243994        -1.437564
 O         2.422248         1.893824        -1.419529
 C         2.148448         1.343106        -0.110315
 O         2.364685        -0.588433        -0.843003
 H        -0.396793         0.586061        -0.952163
 H        -0.392089        -1.176634        -0.501943
 H        -0.644688         0.034514         0.834683
 H         1.569946         0.202725         2.302541
 H         1.797218        -1.431347         1.630826
 H         4.095723         0.657332         1.637977
 H         4.110716        -1.031618         1.343355
 H         4.583325         1.851184        -1.218590
 H         3.933760         0.684523        -2.349891
 H         2.027619         2.152303         0.656629
