19
Iteration:  1409
 C        -0.063368        -0.221627        -0.229356
 C         1.381355         0.069706         0.108842
 C         2.094512        -0.570780         1.353045
 C         3.665065        -0.352171         0.973352
 C         3.272613         0.434581        -0.255529
 C         3.623161         1.364479        -1.368646
 O         2.444426         2.189377        -1.206354
 C         2.159997         1.340233         0.104230
 O         2.227339        -0.547749        -0.933689
 H        -0.592520        -1.219007        -0.126186
 H        -0.801947         0.577961         0.031689
 H        -0.117403        -0.102361        -1.344584
 H         1.994238        -0.279554         2.406230
 H         1.769269        -1.584088         1.363512
 H         4.232747         0.275778         1.749923
 H         4.128432        -1.333048         0.974083
 H         4.556758         1.889302        -1.219951
 H         3.828580         0.792803        -2.232839
 H         2.196805         2.057643         0.905854
