19
Iteration:  1096
 C        -0.076719        -0.184438        -0.235991
 C         1.383985        -0.031631         0.068368
 C         2.049201        -0.531117         1.442752
 C         3.666888        -0.389940         0.974494
 C         3.258201         0.371956        -0.308138
 C         3.667179         1.460630        -1.341554
 O         2.422097         2.122442        -1.174405
 C         2.131127         1.422398         0.016797
 O         2.316130        -0.574557        -0.979257
 H        -0.502680        -1.187495        -0.530297
 H        -0.542184         0.063298         0.760184
 H        -0.427484         0.625275        -0.914291
 H         1.832327         0.217535         2.238386
 H         1.740553        -1.474772         1.770538
 H         4.243461         0.151525         1.768699
 H         3.952020        -1.462617         0.793473
 H         4.592647         1.873085        -0.908685
 H         3.716602         1.095425        -2.381731
 H         2.171901         2.025450         0.952346
