19
Iteration:  4388charge 0 multiplicity 1
 C        -0.078388        -0.062795        -0.149346
 C         1.325634         0.159251         0.178491
 C         1.920420         0.172228         1.559932
 C         3.433755         0.309679         1.291268
 C         3.227974         0.302299        -0.202245
 C         3.905170         0.939494        -1.402163
 O         2.525835         1.386563        -1.870992
 C         2.145523         1.280750        -0.433087
 O         2.358425        -0.764514        -0.447798
 H        -0.789193        -0.416897         0.646894
 H        -0.516736         0.861905        -0.477557
 H        -0.129127        -0.800535        -0.976991
 H         1.626792         1.108959         2.115303
 H         1.619213        -0.819888         2.096505
 H         3.882201         1.195362         1.534195
 H         3.874593        -0.605524         1.651982
 H         4.426135         1.816939        -1.122177
 H         4.540147         0.353541        -2.043106
 H         2.305611         2.214863         0.050214
