19
Iteration:  3456
 C        -0.082005        -0.201874        -0.106129
 C         1.337378         0.136461         0.137431
 C         1.927783        -0.076227         1.567413
 C         3.491317         0.000378         1.309893
 C         3.308653         0.456074        -0.181187
 C         3.913607         0.952669        -1.489430
 O         2.512639         1.637664        -1.746593
 C         2.099499         1.483277        -0.317164
 O         2.333659        -0.596687        -0.629715
 H        -0.275721        -0.717297        -1.043841
 H        -0.388559        -1.005194         0.596732
 H        -0.966451         0.517481        -0.053872
 H         1.536375         0.702742         2.144527
 H         1.512517        -1.072627         1.892401
 H         3.991230         0.823460         1.853711
 H         3.896818        -0.986912         1.508393
 H         4.688911         1.716576        -1.496920
 H         4.149708         0.040363        -2.204184
 H         1.913430         2.412734         0.262156
