19
Iteration:   681charge 0 multiplicity 1
 C        -0.084163        -0.220573        -0.161864
 C         1.393933         0.003873         0.186056
 C         2.017552        -0.521160         1.367147
 C         3.540241        -0.247930         0.914583
 C         3.228661         0.321524        -0.348081
 C         3.688388         1.440349        -1.362952
 O         2.494159         2.207455        -1.199435
 C         2.187470         1.392169        -0.056030
 O         2.292896        -0.682870        -0.903994
 H        -0.101803        -0.971726        -0.913173
 H        -0.607445        -0.522713         0.697345
 H        -0.587354         0.674207        -0.406347
 H         1.979948        -0.017661         2.347637
 H         1.710118        -1.594027         1.423636
 H         3.989031         0.360557         1.678564
 H         4.127936        -1.226255         0.844984
 H         4.635050         1.857688        -0.639411
 H         4.033612         1.265548        -2.399540
 H         2.107332         1.870426         1.045443
