19
Iteration:  4328
 C         0.024092        -0.262747        -0.172024
 C         1.344300         0.236367         0.155692
 C         1.760771         0.176020         1.645641
 C         3.381102         0.255815         1.279630
 C         3.273635         0.442465        -0.171089
 C         3.789566         0.694367        -1.551455
 O         2.660708         1.483975        -1.876064
 C         2.197115         1.497126        -0.417592
 O         2.320755        -0.703847        -0.392314
 H         0.101660        -1.333838        -0.018646
 H        -0.706756         0.154621         0.635504
 H        -0.270788         0.003737        -1.183073
 H         1.431079         0.996553         2.313364
 H         1.358391        -0.720928         2.135432
 H         4.074652         1.069050         1.728786
 H         3.942858        -0.650863         1.589104
 H         4.785928         1.406258        -1.711327
 H         3.829586        -0.303470        -2.099673
 H         2.055011         2.511121         0.167935
