19
Iteration:  2224charge 0 multiplicity 1
 C        -0.082983        -0.249950        -0.209457
 C         1.355325        -0.030354         0.089986
 C         2.047654        -0.537631         1.460823
 C         3.622906        -0.319197         0.939043
 C         3.255474         0.414948        -0.346745
 C         3.726575         1.322245        -1.379995
 O         2.466108         2.182250        -1.234613
 C         2.157760         1.422070         0.028359
 O         2.257029        -0.538334        -0.863761
 H        -0.537371        -1.177539         0.136327
 H        -0.713931         0.605506        -0.037457
 H        -0.283641        -0.344995        -1.242709
 H         1.819913         0.150415         2.377460
 H         1.799702        -1.585491         1.800346
 H         4.214644         0.220234         1.735047
 H         3.955460        -1.339417         0.765000
 H         4.543988         1.853181        -0.974358
 H         3.939874         1.103607        -2.412398
 H         2.244126         2.057549         0.937402
