19
Iteration:  2218
 C        -0.106733        -0.232465        -0.213704
 C         1.331822         0.004884         0.126485
 C         2.055940        -0.522684         1.444153
 C         3.628918        -0.339605         0.967869
 C         3.280136         0.407760        -0.335459
 C         3.717598         1.343509        -1.352303
 O         2.450055         2.169455        -1.216589
 C         2.134506         1.369422         0.005983
 O         2.280337        -0.577839        -0.919035
 H        -0.537834        -1.080791         0.368496
 H        -0.606138         0.745148         0.056679
 H        -0.228910        -0.283136        -1.385335
 H         1.813204         0.208605         2.138507
 H         1.883300        -1.515944         1.823699
 H         4.242303         0.402249         1.532683
 H         4.014014        -1.362688         0.861153
 H         4.564709         1.973135        -0.853612
 H         3.923080         1.130905        -2.433244
 H         2.282734         2.052178         0.839936
