19
Iteration:   615
 C        -0.041932        -0.211260        -0.184251
 C         1.395930         0.124825         0.152774
 C         2.089107        -0.591895         1.301125
 C         3.573875        -0.444347         0.984149
 C         3.269422         0.499969        -0.310862
 C         3.703151         1.399542        -1.371156
 O         2.387913         2.017798        -1.312443
 C         2.111195         1.434951         0.077066
 O         2.301331        -0.491368        -0.802764
 H        -0.041683        -1.254020        -0.224709
 H        -0.562654         0.194038         0.629350
 H        -0.282761         0.227570        -1.099928
 H         1.789327        -0.502960         2.320244
 H         1.725541        -1.589436         1.044320
 H         4.107421        -0.124351         1.842909
 H         4.078366        -1.408313         0.666301
 H         4.502692         2.146313        -0.944013
 H         3.931453         1.091516        -2.376961
 H         2.058112         2.367630         0.697978
