19
Iteration:  3650charge 0 multiplicity 1
 C        -0.052824        -0.277666        -0.126510
 C         1.328175         0.200287         0.090461
 C         1.866731         0.075470         1.647359
 C         3.470332         0.123411         1.328191
 C         3.255189         0.401594        -0.166274
 C         3.869560         0.890489        -1.490403
 O         2.582147         1.614684        -1.786077
 C         2.177280         1.400565        -0.430902
 O         2.310574        -0.651931        -0.515463
 H        -0.369325        -1.281010         0.006882
 H        -0.760076         0.406799         0.314288
 H        -0.287852        -0.166723        -1.224809
 H         1.616063         0.877218         2.486018
 H         1.459292        -0.876707         1.942903
 H         4.103264         0.842470         1.958256
 H         3.965278        -0.909908         1.411592
 H         4.740530         1.480440        -1.621974
 H         3.775860         0.093837        -2.176729
 H         2.052924         2.451209        -0.003093
