19
Iteration:   215
 C        -0.165374        -0.200904        -0.105640
 C         1.343153         0.071663         0.031744
 C         2.107544        -0.632643         1.322284
 C         3.642531        -0.457521         0.938523
 C         3.317106         0.386795        -0.288515
 C         3.716466         1.505517        -1.278045
 O         2.376470         2.061174        -1.126993
 C         2.120641         1.344430         0.042085
 O         2.362229        -0.410190        -1.035195
 H        -0.758025         0.668566        -0.381091
 H        -0.329101        -0.878474        -0.926794
 H        -0.762811        -0.556816         0.687933
 H         1.867484        -0.086082         2.227532
 H         1.742386        -1.712894         1.388462
 H         4.115692         0.201396         1.652215
 H         4.246360        -1.401703         0.743808
 H         4.559784         2.088601        -0.972452
 H         4.015059         1.196029        -2.300885
 H         2.046574         1.969341         1.020575
