19
Iteration:  1790
 C        -0.152113        -0.284981        -0.175679
 C         1.385487         0.017699         0.036613
 C         2.073887        -0.521399         1.328361
 C         3.665605        -0.270719         0.963627
 C         3.252647         0.358004        -0.302841
 C         3.695357         1.343276        -1.324359
 O         2.456260         2.105028        -1.176159
 C         2.123830         1.410402         0.035079
 O         2.287146        -0.504020        -0.939919
 H        -0.571478        -1.118044         0.401255
 H        -0.604292         0.541971         0.378125
 H        -0.348853        -0.134490        -1.216397
 H         1.628123        -0.008630         2.254260
 H         2.044986        -1.627023         1.544723
 H         4.165079         0.341334         1.689504
 H         4.191938        -1.146084         0.933990
 H         4.523662         1.929070        -0.949838
 H         3.815616         0.986409        -2.339374
 H         2.269170         2.100317         0.922215
