19
Iteration:   886charge 0 multiplicity 1
 C        -0.163912        -0.166153        -0.063682
 C         1.325950        -0.059531         0.066106
 C         2.070140        -0.480767         1.331003
 C         3.617664        -0.353771         0.974001
 C         3.343919         0.409538        -0.278084
 C         3.793755         1.479142        -1.291935
 O         2.411298         2.156322        -1.207904
 C         2.148398         1.313253        -0.069775
 O         2.255445        -0.643723        -0.979995
 H        -0.412857        -1.286893        -0.028520
 H        -0.674224         0.307804         0.819409
 H        -0.375304         0.250609        -1.082495
 H         1.811314         0.061184         2.255714
 H         1.794222        -1.546479         1.317300
 H         4.115328         0.310184         1.706847
 H         4.195727        -1.274836         0.733038
 H         4.502456         2.247372        -0.723439
 H         4.077781         1.282679        -2.344242
 H         2.209494         1.850937         0.831867
