19
Iteration:  3049charge 0 multiplicity 1
 C        -0.050737        -0.219564        -0.173726
 C         1.391643         0.068180         0.074919
 C         1.979126        -0.246707         1.533524
 C         3.552100        -0.165249         1.126703
 C         3.272056         0.290615        -0.243013
 C         3.793653         1.199606        -1.393289
 O         2.482662         1.916336        -1.461749
 C         2.100229         1.425391        -0.183098
 O         2.273890        -0.612572        -0.783458
 H        -0.475885         0.185135         0.747069
 H        -0.487687         0.273482        -0.998196
 H        -0.148954        -1.258473        -0.195532
 H         1.635565         0.682588         2.063702
 H         1.620288        -1.148947         1.887190
 H         4.134900         0.522311         1.683896
 H         4.075430        -1.140635         1.128251
 H         4.580008         2.100407        -1.184027
 H         4.070715         0.586947        -2.246272
 H         1.979886         2.205584         0.622702
