19
Iteration:  3796charge 0 multiplicity 1
 C        -0.065826        -0.192098        -0.218013
 C         1.305903         0.187246         0.097783
 C         1.880678         0.224532         1.616778
 C         3.456895         0.132900         1.370277
 C         3.240089         0.383637        -0.107993
 C         3.903016         0.850621        -1.526678
 O         2.577753         1.482418        -1.854597
 C         2.135340         1.378813        -0.417081
 O         2.342644        -0.655059        -0.458393
 H        -0.778694         0.619372        -0.100286
 H        -0.247977        -0.794153        -1.170850
 H        -0.431109        -0.834358         0.602603
 H         1.717638         1.064700         2.289563
 H         1.461045        -0.771072         2.176584
 H         4.046780         0.947456         1.795570
 H         3.992176        -0.789374         1.587724
 H         4.684572         1.498777        -1.413119
 H         4.149712        -0.060259        -2.163466
 H         1.957796         2.380383         0.109865
