19
Iteration:  1163
 C        -0.128749        -0.196835        -0.077391
 C         1.322702         0.017584         0.134602
 C         2.026813        -0.649709         1.295631
 C         3.603432        -0.342292         1.027710
 C         3.272976         0.482117        -0.227289
 C         3.870748         1.384169        -1.353121
 O         2.419902         2.001158        -1.258786
 C         2.118394         1.411517         0.041416
 O         2.327660        -0.395041        -1.004693
 H        -0.324380        -1.303509        -0.211894
 H        -0.801125         0.057337         0.816504
 H        -0.507032         0.290179        -0.997371
 H         1.803429        -0.405494         2.310095
 H         1.758324        -1.719402         1.156083
 H         4.071682         0.263539         1.848399
 H         4.254225        -1.236574         0.626111
 H         4.530656         2.215708        -1.420210
 H         3.787449         0.761086        -2.282644
 H         1.978849         2.214204         0.767627
