19
Iteration:   833
 C        -0.087921        -0.278786        -0.180641
 C         1.270475         0.136004         0.146387
 C         2.065325        -0.653563         1.338924
 C         3.560503        -0.412447         0.952876
 C         3.324328         0.480933        -0.253224
 C         3.739779         1.458059        -1.435972
 O         2.420641         2.075246        -1.246461
 C         2.175304         1.490744         0.101218
 O         2.312996        -0.522039        -0.858240
 H        -0.318522        -1.163091         0.483823
 H        -0.789123         0.556964        -0.024713
 H         0.043738        -0.563842        -1.244453
 H         1.596525        -0.233506         2.313224
 H         1.889821        -1.711406         1.324399
 H         4.375998        -0.027097         1.619690
 H         3.803022        -1.409118         0.540973
 H         4.639430         2.027793        -1.407654
 H         3.681415         0.946642        -2.362561
 H         2.309869         2.190486         0.899074
