19
Iteration:  2801charge 0 multiplicity 1
 C        -0.027826        -0.243525        -0.241900
 C         1.345132         0.140958         0.183119
 C         2.005973        -0.449226         1.480251
 C         3.503828        -0.418337         1.078324
 C         3.357195         0.380588        -0.226287
 C         3.643471         1.336004        -1.535652
 O         2.411874         1.991434        -1.355153
 C         2.214549         1.457464        -0.000205
 O         2.359639        -0.489303        -0.816325
 H        -0.884016        -0.108415         0.415007
 H        -0.237809         0.395599        -1.150815
 H        -0.082924        -1.300117        -0.423873
 H         1.756741         0.169763         2.360548
 H         1.647385        -1.491371         1.568909
 H         4.124559         0.298449         1.712625
 H         4.020254        -1.370495         0.966145
 H         4.508206         2.096763        -1.328488
 H         3.851471         0.767977        -2.492881
 H         1.992256         2.169213         0.763325
