19
Iteration:  1973
 C        -0.106989        -0.161100        -0.273073
 C         1.389973         0.031525         0.077060
 C         2.138884        -0.402308         1.404389
 C         3.598802        -0.355319         0.998804
 C         3.222151         0.306914        -0.333703
 C         3.665223         1.421119        -1.336156
 O         2.366695         2.084837        -1.168101
 C         2.224451         1.380264         0.043866
 O         2.287349        -0.605394        -0.934563
 H        -0.396268        -1.198681         0.055716
 H        -0.814802         0.556278         0.172372
 H        -0.100714        -0.338402        -1.333691
 H         1.970506         0.254269         2.231615
 H         1.797151        -1.332654         1.760616
 H         4.327792         0.204883         1.712559
 H         4.089387        -1.367249         0.937302
 H         4.574759         2.037962        -0.998868
 H         3.969559         1.009813        -2.302657
 H         2.068883         1.956673         0.927667
