19
Iteration:  3995charge 0 multiplicity 1
 C        -0.071664        -0.129232        -0.074303
 C         1.315202         0.232636         0.080628
 C         1.812396         0.060963         1.625556
 C         3.387573         0.329513         1.435106
 C         3.334989         0.500005        -0.130926
 C         3.850016         0.819995        -1.494101
 O         2.653325         1.260444        -1.902232
 C         2.160803         1.450578        -0.551300
 O         2.362888        -0.708015        -0.458065
 H        -0.214471        -1.181927        -0.382951
 H        -0.512828        -0.084638         0.890035
 H        -0.611315         0.512266        -0.749088
 H         1.418790         0.852721         2.278086
 H         1.336802        -0.925989         1.926463
 H         3.710503         1.255940         1.891438
 H         4.011343        -0.458727         1.722765
 H         4.595630         1.612770        -1.673246
 H         4.114570        -0.081267        -2.085377
 H         1.977748         2.563785        -0.253702
