19
Iteration:  3392
 C        -0.133317        -0.087102        -0.201909
 C         1.402695         0.103561         0.071852
 C         1.959637        -0.043237         1.580290
 C         3.499883         0.117071         1.297200
 C         3.302529         0.293930        -0.214767
 C         3.774610         1.070774        -1.429326
 O         2.499577         1.697631        -1.631409
 C         2.151956         1.339720        -0.300289
 O         2.328562        -0.792294        -0.677864
 H        -0.315277        -1.119296        -0.452225
 H        -0.548558         0.082253         0.779113
 H        -0.421444         0.616166        -1.017530
 H         1.495970         0.719406         2.210403
 H         1.980540        -1.193625         2.092133
 H         4.045048         1.010530         1.582536
 H         4.062886        -0.634527         1.799338
 H         4.413939         1.849198        -1.151409
 H         4.055463         0.391545        -2.318620
 H         2.033596         2.338921         0.274713
