19
Iteration:  1477
 C        -0.073053        -0.170686        -0.077169
 C         1.334469         0.085539         0.067993
 C         2.116623        -0.710859         1.422411
 C         3.558671        -0.427686         0.959028
 C         3.287459         0.444201        -0.257564
 C         3.768197         1.442906        -1.275157
 O         2.479170         2.011217        -1.416057
 C         2.050530         1.441783         0.006270
 O         2.297870        -0.433467        -0.908664
 H        -0.421505        -1.236762        -0.278085
 H        -0.627693         0.020359         0.899036
 H        -0.740240         0.320857        -0.809431
 H         1.848065        -0.400295         2.524788
 H         1.778747        -1.784370         1.262432
 H         3.946461         0.216447         1.748333
 H         4.334320        -1.210002         0.688397
 H         4.432613         2.268421        -0.973693
 H         4.183770         1.147651        -2.295209
 H         1.867002         2.261186         0.767546
