19
Iteration:  3771
 C        -0.001573        -0.280137        -0.206909
 C         1.341461         0.277157         0.188208
 C         1.839261         0.177991         1.596267
 C         3.391145         0.191062         1.325079
 C         3.297791         0.435975        -0.111436
 C         3.773587         0.801041        -1.582001
 O         2.615105         1.476666        -1.837916
 C         2.250010         1.468528        -0.355228
 O         2.268745        -0.685771        -0.487765
 H        -0.694201         0.381197        -0.714641
 H         0.204727        -1.186068        -0.805138
 H        -0.659827        -0.690577         0.620297
 H         1.614509         0.931877         2.393121
 H         1.582036        -0.803998         1.985219
 H         3.970296         0.913902         1.981660
 H         3.904052        -0.845173         1.470446
 H         4.654746         1.443960        -1.432986
 H         3.976552        -0.125492        -2.146026
 H         2.155106         2.557947         0.100088
