19
Iteration:  2967charge 0 multiplicity 1
 C        -0.114392        -0.142441        -0.239227
 C         1.408436         0.054577         0.128237
 C         1.981091        -0.330172         1.482630
 C         3.547364        -0.162511         1.114829
 C         3.348711         0.383121        -0.307983
 C         3.781139         1.208001        -1.443544
 O         2.406934         1.923469        -1.411153
 C         2.161603         1.317592        -0.024900
 O         2.336656        -0.614215        -0.807599
 H        -0.503682         0.440462        -1.077857
 H        -0.633586        -1.122684        -0.235164
 H        -0.661086         0.268197         0.689127
 H         1.662709         0.377319         2.282353
 H         1.579170        -1.383767         1.790820
 H         3.904449         0.700534         1.788855
 H         4.297840        -0.941594         1.210543
 H         4.555762         1.985686        -1.240359
 H         3.945476         0.834179        -2.485506
 H         2.138780         2.050175         0.747060
