19
Iteration:     6charge 0 multiplicity 1
 C        -0.084470        -0.198263        -0.170335
 C         1.406629         0.014798         0.001232
 C         2.103069        -0.743502         1.239317
 C         3.619551        -0.473860         0.877629
 C         3.248835         0.412567        -0.313096
 C         3.695132         1.528358        -1.295841
 O         2.377555         2.198065        -0.999740
 C         2.168193         1.302742         0.156553
 O         2.236516        -0.401774        -1.038176
 H        -0.496408         0.112887         0.811511
 H        -0.371004         0.508487        -0.975667
 H        -0.166886        -1.279626        -0.405307
 H         1.984012        -0.174118         2.223432
 H         1.909185        -1.826209         1.426360
 H         4.151004         0.019818         1.734553
 H         4.210114        -1.340965         0.529801
 H         4.607395         2.110518        -0.977751
 H         3.908103         1.254303        -2.347534
 H         2.093973         1.875689         1.137008
