19
Iteration:   764charge 0 multiplicity 1
 C        -0.209937        -0.118332        -0.116270
 C         1.387621        -0.009525         0.125149
 C         2.114435        -0.628684         1.337784
 C         3.638577        -0.368681         1.037951
 C         3.256048         0.341001        -0.351801
 C         3.774400         1.561536        -1.301618
 O         2.403496         2.122442        -1.302279
 C         2.146419         1.369193        -0.018626
 O         2.288734        -0.598050        -0.916802
 H        -0.464659        -1.221080         0.095845
 H        -0.829029         0.548244         0.612659
 H        -0.289899         0.035133        -1.229452
 H         1.821536        -0.141996         2.245630
 H         1.915032        -1.776283         1.347256
 H         4.025636         0.377602         1.721802
 H         4.154845        -1.369050         0.951544
 H         4.546465         2.199287        -0.756424
 H         4.120819         1.337930        -2.362232
 H         2.176461         1.968393         0.818361
