19
Iteration:  2019
 C        -0.132609        -0.149970        -0.075208
 C         1.422281         0.103352         0.097403
 C         2.057198        -0.649070         1.304043
 C         3.523278        -0.291241         1.042695
 C         3.369283         0.435474        -0.276192
 C         3.716897         1.361554        -1.327051
 O         2.415730         2.051255        -1.345308
 C         2.099393         1.421113        -0.009950
 O         2.314465        -0.559220        -0.915425
 H        -0.411537        -1.258245         0.026859
 H        -0.558319         0.476355         0.772768
 H        -0.429176         0.106094        -1.105962
 H         1.692215        -0.433829         2.271076
 H         2.102757        -1.744488         1.305335
 H         4.006493         0.293071         1.880725
 H         4.116585        -1.183808         1.085542
 H         4.595316         2.014757        -1.060955
 H         4.008679         0.988559        -2.348293
 H         2.069302         2.204017         0.764642
