19
Iteration:  3613charge 0 multiplicity 1
 C        -0.124940        -0.238774        -0.160518
 C         1.361658         0.151135         0.112751
 C         1.889137         0.180534         1.604161
 C         3.491639         0.185630         1.246734
 C         3.288270         0.270675        -0.172132
 C         3.823593         0.912203        -1.463099
 O         2.550214         1.687151        -1.643497
 C         2.158999         1.328988        -0.420185
 O         2.336101        -0.776201        -0.596567
 H        -0.728448        -0.532635         0.716755
 H        -0.474687         0.732759        -0.530016
 H        -0.037574        -0.855817        -1.011471
 H         1.503382         1.032656         2.090005
 H         1.550746        -0.721528         2.128773
 H         3.919092         1.110320         1.560918
 H         4.059356        -0.639667         1.607087
 H         4.710579         1.596157        -1.370877
 H         4.010571         0.197337        -2.230420
 H         2.195486         2.103438         0.398535
