19
Iteration:    89charge 0 multiplicity 1
 C        -0.152258        -0.198864        -0.061630
 C         1.371653        -0.015600         0.116812
 C         2.100228        -0.770051         1.224525
 C         3.603824        -0.494985         0.864451
 C         3.312418         0.469149        -0.297093
 C         3.833588         1.541784        -1.271181
 O         2.367352         2.020779        -1.153936
 C         2.110782         1.373540         0.133766
 O         2.301474        -0.253627        -1.052180
 H        -0.308810        -1.238995         0.013882
 H        -0.876080         0.206200         0.670707
 H        -0.558299         0.079066        -1.067561
 H         1.745884        -0.479013         2.237454
 H         1.830229        -1.765313         1.180802
 H         4.205762         0.059403         1.644985
 H         4.156801        -1.322505         0.580785
 H         4.452497         2.294729        -0.768961
 H         4.037098         1.184679        -2.226332
 H         1.997673         1.964681         1.008212
