19
Iteration:  3266
 C        -0.055249        -0.064874        -0.145646
 C         1.369590         0.042116         0.078329
 C         1.930443        -0.223121         1.524831
 C         3.459295         0.046105         1.198994
 C         3.283861         0.393927        -0.212661
 C         3.858905         1.110794        -1.452082
 O         2.439848         1.683091        -1.575578
 C         2.179326         1.343545        -0.255211
 O         2.345646        -0.664854        -0.668686
 H        -0.498949         0.991536        -0.006489
 H        -0.415155        -0.371378        -1.175525
 H        -0.546660        -0.728978         0.576184
 H         1.593017         0.480785         2.360262
 H         1.863818        -1.220187         1.704001
 H         3.819249         0.915179         1.815198
 H         4.142706        -0.855156         1.414690
 H         4.426651         2.007218        -1.201130
 H         4.183193         0.641390        -2.347898
 H         2.098783         2.150473         0.419639
