19
Iteration:  2216charge 0 multiplicity 1
 C        -0.128063        -0.219960        -0.225297
 C         1.335318         0.017308         0.137844
 C         2.068187        -0.505287         1.427028
 C         3.620494        -0.348788         0.976549
 C         3.274787         0.381916        -0.321477
 C         3.723379         1.376547        -1.343558
 O         2.444290         2.155966        -1.208699
 C         2.130407         1.348641        -0.002101
 O         2.288080        -0.590089        -0.942647
 H        -0.511188        -0.964770         0.416427
 H        -0.544168         0.702120         0.111091
 H        -0.161437        -0.275877        -1.259184
 H         1.797507         0.271741         2.134062
 H         1.888539        -1.532025         1.810807
 H         4.284196         0.453156         1.520642
 H         4.089533        -1.322225         0.891807
 H         4.522010         1.990867        -0.881671
 H         3.915874         1.102549        -2.403977
 H         2.248842         2.019661         0.787442
