19
Iteration:  3486charge 0 multiplicity 1
 C        -0.086076        -0.270082        -0.197604
 C         1.365248         0.105744         0.108621
 C         1.938175         0.103280         1.577273
 C         3.492850         0.137519         1.294162
 C         3.256965         0.249596        -0.238410
 C         3.843232         0.929017        -1.561239
 O         2.559772         1.827072        -1.633362
 C         2.145079         1.383085        -0.280221
 O         2.266182        -0.733878        -0.589046
 H        -0.371339        -0.126615        -1.248188
 H        -0.018589        -1.378368        -0.052896
 H        -0.857701         0.188393         0.521091
 H         1.455896         0.966123         2.121033
 H         1.629651        -0.770670         2.004525
 H         4.169692         0.927843         1.761076
 H         3.939489        -0.795769         1.745431
 H         4.736429         1.578791        -1.284721
 H         3.966844         0.213235        -2.406676
 H         2.216505         2.141235         0.456132
