19
Iteration:  4217charge 0 multiplicity 1
 C        -0.012998        -0.225043        -0.196412
 C         1.376438         0.248852         0.139556
 C         1.833991         0.157739         1.628784
 C         3.507358         0.320952         1.349171
 C         3.232353         0.418446        -0.127758
 C         3.837884         0.702063        -1.463569
 O         2.612684         1.365795        -1.848159
 C         2.123991         1.432000        -0.401883
 O         2.269935        -0.623121        -0.511515
 H         0.031625        -1.267559        -0.385414
 H        -0.831965        -0.004800         0.546455
 H        -0.373311         0.248338        -1.119114
 H         1.450434         0.933494         2.323292
 H         1.584077        -0.809110         1.949599
 H         4.060428         1.140829         1.784715
 H         4.030676        -0.556928         1.828011
 H         4.701265         1.458781        -1.526354
 H         3.943189        -0.147699        -2.141561
 H         2.043723         2.545549        -0.148730
