19
Iteration:  4298charge 0 multiplicity 1
 C        -0.205554        -0.238369        -0.144388
 C         1.297601         0.198111         0.112918
 C         1.860336         0.286347         1.598294
 C         3.535067         0.236930         1.362263
 C         3.322231         0.344483        -0.152629
 C         3.917909         0.820142        -1.444043
 O         2.605124         1.340128        -1.869710
 C         2.190109         1.453507        -0.397829
 O         2.311778        -0.672189        -0.514721
 H        -0.375279        -1.305621        -0.502877
 H        -0.865369        -0.234892         0.720446
 H        -0.698461         0.335881        -0.953972
 H         1.542068         1.233481         2.128555
 H         1.563694        -0.661411         2.272843
 H         4.023647         1.178243         1.745312
 H         3.854551        -0.700353         1.730649
 H         4.485199         1.694755        -1.372162
 H         4.404120         0.169986        -2.178910
 H         1.939159         2.467322        -0.165784
