19
Iteration:  3760
 C        -0.070405        -0.273739        -0.211383
 C         1.307478         0.199120         0.106377
 C         1.877095         0.153154         1.655828
 C         3.434702         0.181917         1.368421
 C         3.268937         0.399829        -0.185683
 C         3.881613         0.781444        -1.535475
 O         2.575786         1.502388        -1.804344
 C         2.188089         1.421288        -0.373507
 O         2.304561        -0.599153        -0.477512
 H        -0.477054         0.464186        -0.898604
 H         0.042793        -1.233533        -0.722014
 H        -0.520388        -0.317886         0.817118
 H         1.446424         1.022442         2.240610
 H         1.480254        -0.780997         2.081047
 H         3.937493         1.124263         1.741552
 H         3.978735        -0.801372         1.675883
 H         4.726146         1.427606        -1.811876
 H         3.909471        -0.074001        -2.235531
 H         2.289461         2.449396         0.218542
