19
Iteration:  4930
 C        -0.167576        -0.191375        -0.118537
 C         1.303054         0.117243         0.151887
 C         1.979808         0.230828         1.622984
 C         3.485750         0.301268         1.262171
 C         3.247060         0.304119        -0.170418
 C         3.899823         0.918971        -1.402813
 O         2.659138         1.494104        -1.782957
 C         2.111273         1.326433        -0.492519
 O         2.277889        -0.824167        -0.555245
 H        -0.703815        -0.808274         0.664161
 H        -0.592247         0.800050        -0.010548
 H        -0.289037        -0.548555        -1.121251
 H         1.568804         1.208453         2.075179
 H         1.492138        -0.533683         2.346261
 H         3.864087         1.298756         1.550005
 H         4.199705        -0.449093         1.561175
 H         4.501309         1.749957        -1.275421
 H         4.206726         0.185186        -2.128410
 H         2.003405         2.358966         0.004235
