19
Iteration:  2104charge 0 multiplicity 1
 C        -0.037919        -0.286242        -0.195248
 C         1.392922         0.046894         0.058503
 C         1.999873        -0.405364         1.487087
 C         3.607002        -0.352100         1.019231
 C         3.309095         0.327565        -0.327448
 C         3.699818         1.462373        -1.432094
 O         2.469922         2.105712        -1.205159
 C         2.137288         1.386663        -0.029950
 O         2.231895        -0.585575        -0.902120
 H        -0.315432        -1.163525        -0.789140
 H        -0.639470        -0.281809         0.711082
 H        -0.513017         0.581703        -0.575636
 H         1.620850         0.369626         2.268694
 H         1.805378        -1.480569         1.747801
 H         4.301893         0.392403         1.644498
 H         3.947760        -1.446477         0.895170
 H         4.725071         1.831597        -1.121607
 H         3.721129         0.974057        -2.436212
 H         2.364710         1.852150         0.904408
