19
Iteration:  2305
 C        -0.158546        -0.080808        -0.138523
 C         1.338473         0.015396         0.071537
 C         2.112860        -0.552110         1.359233
 C         3.658524        -0.306779         1.001578
 C         3.245140         0.328381        -0.302005
 C         3.774616         1.495561        -1.239411
 O         2.413734         2.062076        -1.340522
 C         2.064192         1.340953        -0.073951
 O         2.327147        -0.651815        -0.908125
 H        -0.693049        -0.798903        -0.701301
 H        -0.507608        -0.470845         0.802786
 H        -0.452744         0.940733        -0.357421
 H         1.801412         0.079634         2.227157
 H         1.891533        -1.621562         1.545649
 H         4.260198         0.411717         1.672185
 H         4.186744        -1.299458         1.188036
 H         4.382281         2.105933        -0.562932
 H         4.187581         1.255451        -2.233024
 H         2.210173         2.046012         0.739644
