19
Iteration:  4200
 C        -0.065705        -0.262251        -0.269904
 C         1.283315         0.250170         0.142354
 C         1.955145         0.198580         1.715652
 C         3.384906         0.183550         1.428415
 C         3.311631         0.444117        -0.163972
 C         3.846999         0.719459        -1.541496
 O         2.566961         1.482800        -1.892980
 C         2.190688         1.458338        -0.499005
 O         2.309006        -0.652716        -0.387286
 H        -0.105272        -1.385155        -0.081858
 H        -0.985331         0.135119         0.270926
 H        -0.341940        -0.151132        -1.332193
 H         1.685901         1.083791         2.345892
 H         1.606026        -0.780289         2.285444
 H         3.917028         1.079005         1.949602
 H         4.039070        -0.653895         1.587915
 H         4.696952         1.359133        -1.565078
 H         4.019163        -0.197604        -2.164931
 H         2.119264         2.415716        -0.064881
