19
Iteration:  4004
 C        -0.073396        -0.171526        -0.095086
 C         1.379355         0.246791         0.041447
 C         1.879508         0.174481         1.625768
 C         3.386440         0.317477         1.412096
 C         3.247547         0.454415        -0.079516
 C         3.945111         0.752840        -1.561064
 O         2.579445         1.306978        -1.857578
 C         2.111428         1.454759        -0.488808
 O         2.359038        -0.719584        -0.481320
 H        -0.163255        -1.153447        -0.512050
 H        -0.741236        -0.091960         0.764957
 H        -0.486792         0.543370        -0.778874
 H         1.412500         0.878766         2.189405
 H         1.531233        -0.868927         1.947590
 H         3.669765         1.264471         1.963308
 H         4.004823        -0.482765         1.778278
 H         4.720013         1.549492        -1.388717
 H         4.232177        -0.229605        -2.136764
 H         1.848519         2.520219        -0.175530
