19
Iteration:  2071charge 0 multiplicity 1
 C        -0.104946        -0.228852        -0.161614
 C         1.375594         0.073905         0.098852
 C         2.079971        -0.457942         1.444983
 C         3.597768        -0.351633         0.977733
 C         3.234762         0.357809        -0.283648
 C         3.773199         1.352016        -1.335041
 O         2.475233         2.060834        -1.275182
 C         2.035421         1.377209        -0.040067
 O         2.299178        -0.505836        -0.918705
 H        -0.347306        -1.154008        -0.694010
 H        -0.575075        -0.529149         0.770294
 H        -0.475709         0.654992        -0.613666
 H         1.709419         0.213691         2.315308
 H         1.857035        -1.527157         1.690223
 H         4.407259         0.269893         1.588981
 H         4.171289        -1.333172         0.730266
 H         4.648949         2.024746        -0.953316
 H         3.835557         1.045144        -2.418641
 H         2.021108         2.093325         0.765139
