19
Iteration:  1592charge 0 multiplicity 1
 C        -0.066978        -0.180890        -0.148387
 C         1.381980         0.082413         0.165698
 C         2.097378        -0.682790         1.421535
 C         3.547132        -0.344185         0.960524
 C         3.292066         0.435588        -0.292057
 C         3.798433         1.440491        -1.315699
 O         2.376719         1.944972        -1.361724
 C         2.147007         1.384120         0.060648
 O         2.227066        -0.405242        -0.917411
 H        -0.325414        -1.178513         0.134633
 H        -0.534811         0.619313         0.327050
 H        -0.271719        -0.139945        -1.221785
 H         1.634622        -0.408234         2.443652
 H         2.009571        -1.710196         1.108301
 H         4.059255         0.293229         1.718696
 H         4.101489        -1.211232         0.726649
 H         4.520422         2.312312        -1.030508
 H         4.134976         1.148480        -2.319672
 H         2.186771         2.129644         0.846638
