19
Iteration:  4501
 C        -0.051203        -0.169599        -0.188402
 C         1.374524         0.111709         0.104940
 C         1.917506         0.251878         1.544891
 C         3.454048         0.307312         1.294559
 C         3.260170         0.373186        -0.142379
 C         3.816574         0.785134        -1.456335
 O         2.592941         1.545338        -1.813967
 C         2.081832         1.305745        -0.427350
 O         2.310805        -0.793430        -0.403459
 H        -0.427977        -0.992547         0.406838
 H        -0.598199         0.857508         0.048922
 H        -0.080686        -0.367548        -1.283329
 H         1.709308         1.189209         2.176579
 H         1.594354        -0.616985         2.059345
 H         4.022707         1.238593         1.595510
 H         3.886650        -0.638234         1.675721
 H         4.627304         1.510196        -1.339679
 H         4.083026        -0.024077        -2.162596
 H         2.031257         2.306422         0.034598
