19
Iteration:  3164
 C        -0.100041        -0.131323         0.035615
 C         1.363071         0.068530         0.100734
 C         1.934757        -0.213918         1.491135
 C         3.521004        -0.058950         1.154976
 C         3.261921         0.408068        -0.255740
 C         3.888799         1.176811        -1.344425
 O         2.491674         1.813417        -1.540073
 C         2.121522         1.352324        -0.277391
 O         2.342415        -0.726604        -0.822396
 H        -0.281524        -0.956854        -0.765329
 H        -0.812095        -0.496862         0.827086
 H        -0.700106         0.710427        -0.495746
 H         1.617555         0.658612         2.014335
 H         1.350941        -1.164957         1.807807
 H         3.996244         0.622243         1.918724
 H         4.120585        -0.979143         0.983443
 H         4.471009         2.043990        -0.948365
 H         4.415081         0.791241        -2.298409
 H         2.136310         2.253141         0.385608
