19
Iteration:  4869
 C        -0.082264        -0.226024        -0.232804
 C         1.373962         0.257888         0.171526
 C         1.874492         0.159638         1.648895
 C         3.482900         0.208432         1.432005
 C         3.281860         0.432189        -0.157256
 C         3.879436         0.670944        -1.479364
 O         2.511308         1.426754        -1.896814
 C         2.111897         1.464294        -0.421824
 O         2.356633        -0.582356        -0.474478
 H        -0.205019        -1.266472        -0.423830
 H        -0.789667         0.138648         0.602961
 H        -0.511566         0.358784        -1.088642
 H         1.533244         0.829610         2.404828
 H         1.735623        -0.829864         1.872060
 H         4.110231         0.994042         1.822950
 H         4.027692        -0.776908         1.637787
 H         4.720320         1.350347        -1.823681
 H         4.021235        -0.304598        -1.997927
 H         1.953790         2.477041        -0.107853
