19
Iteration:  1675
 C        -0.070495        -0.262657        -0.266572
 C         1.313133         0.108537         0.035655
 C         2.091271        -0.480256         1.490573
 C         3.635342        -0.259166         0.959973
 C         3.311074         0.337066        -0.361830
 C         3.645931         1.383963        -1.361987
 O         2.464699         2.127536        -1.184850
 C         2.196176         1.383038         0.026248
 O         2.193416        -0.593211        -0.863832
 H        -0.088057        -1.331357        -0.569848
 H        -0.663584        -0.235965         0.724358
 H        -0.445211         0.449816        -1.057577
 H         1.660122        -0.106806         2.361967
 H         1.962210        -1.565167         1.588354
 H         4.350226         0.227467         1.650481
 H         4.207990        -1.251516         0.710861
 H         4.491179         1.939796        -0.994353
 H         3.702860         1.128701        -2.453480
 H         2.363810         1.782716         1.049551
