19
Iteration:  3283
 C        -0.106085        -0.043583        -0.081981
 C         1.387189         0.076203         0.133741
 C         1.979975        -0.173585         1.533975
 C         3.525097         0.037243         1.274716
 C         3.273657         0.314899        -0.276112
 C         3.807338         1.204208        -1.361735
 O         2.511070         1.738319        -1.703134
 C         2.044552         1.365384        -0.284009
 O         2.373611        -0.802989        -0.726380
 H        -0.632629         0.711199         0.483508
 H        -0.330185         0.108870        -1.126821
 H        -0.607562        -0.984877         0.208012
 H         1.511946         0.496903         2.236008
 H         1.598172        -1.252074         1.796505
 H         4.056648         0.872062         1.702770
 H         4.057705        -0.867821         1.443258
 H         4.605565         1.813820        -0.863997
 H         4.312439         0.576650        -2.186283
 H         1.883903         2.275944         0.398938
