19
Iteration:  1882charge 0 multiplicity 1
 C        -0.147315        -0.121479        -0.069367
 C         1.323466         0.025003         0.050166
 C         2.054829        -0.640319         1.442769
 C         3.591753        -0.272807         1.071121
 C         3.319510         0.351506        -0.380636
 C         3.752302         1.459424        -1.266824
 O         2.418964         2.164687        -1.335114
 C         2.190819         1.298954        -0.108139
 O         2.296854        -0.615674        -0.960545
 H        -0.472414        -0.968340        -0.609422
 H        -0.650959        -0.329590         0.859567
 H        -0.664874         0.651315        -0.640362
 H         1.619041        -0.070363         2.324771
 H         1.928897        -1.723620         1.687886
 H         4.021574         0.491289         1.757036
 H         4.377556        -1.142614         1.231693
 H         4.497791         2.113899        -0.731684
 H         4.189770         1.092668        -2.236833
 H         2.220942         2.003566         0.701857
