19
Iteration:  2658charge 0 multiplicity 1
 C        -0.052039        -0.256810        -0.238023
 C         1.386456         0.081367         0.082949
 C         2.059685        -0.456051         1.438258
 C         3.588315        -0.302239         1.014725
 C         3.233841         0.331024        -0.339842
 C         3.696822         1.334678        -1.379987
 O         2.388304         2.122706        -1.234163
 C         2.197612         1.423097         0.056123
 O         2.271442        -0.573114        -0.857104
 H        -0.085765        -0.321488        -1.352515
 H        -0.350443        -1.300336        -0.017859
 H        -0.519352         0.613398         0.072908
 H         1.762745         0.244942         2.294192
 H         1.958101        -1.546853         1.616309
 H         4.312407         0.227051         1.709693
 H         3.971081        -1.405699         0.858960
 H         4.677997         1.900654        -1.297038
 H         3.593206         0.930747        -2.401449
 H         2.335592         2.113802         0.866764
