19
Iteration:  4093
 C        -0.112471        -0.192463        -0.100404
 C         1.344343         0.203078         0.115859
 C         1.860355         0.146711         1.600517
 C         3.390195         0.303129         1.433794
 C         3.336744         0.426305        -0.166850
 C         3.916914         0.772085        -1.468281
 O         2.573064         1.366761        -1.860694
 C         2.144310         1.328297        -0.488311
 O         2.343060        -0.583650        -0.511447
 H        -0.503626        -0.925336         0.616908
 H        -0.696224         0.662870        -0.041107
 H        -0.193624        -0.501523        -1.128229
 H         1.475218         0.847134         2.247817
 H         1.772298        -0.820686         2.076382
 H         3.873862         1.135371         1.905157
 H         3.957677        -0.568902         1.583366
 H         4.590404         1.637690        -1.682079
 H         4.133779        -0.149903        -2.068073
 H         1.920494         2.391034        -0.182701
