19
Iteration:  2847charge 0 multiplicity 1
 C        -0.193414        -0.108846        -0.142490
 C         1.352492        -0.005639         0.098486
 C         2.104585        -0.432032         1.436551
 C         3.601910        -0.175851         1.095262
 C         3.299891         0.305170        -0.332381
 C         3.830162         1.339370        -1.344231
 O         2.450091         1.952870        -1.338391
 C         2.051626         1.374391        -0.119848
 O         2.312792        -0.575572        -0.875524
 H        -0.738774        -0.763947         0.472729
 H        -0.669964         0.838623        -0.167094
 H        -0.512105        -0.635775        -1.019457
 H         1.885517         0.174896         2.346035
 H         1.797452        -1.540385         1.541272
 H         3.997719         0.511022         1.946163
 H         4.212414        -1.064206         1.062966
 H         4.739112         1.926498        -0.860540
 H         4.119431         0.973527        -2.382648
 H         1.943564         2.084735         0.676429
