19
Iteration:  1251charge 0 multiplicity 1
 C        -0.029119        -0.184847        -0.255172
 C         1.393737         0.012529         0.185513
 C         2.036904        -0.586829         1.429312
 C         3.579003        -0.349056         0.966813
 C         3.277420         0.383610        -0.275395
 C         3.644932         1.408845        -1.401229
 O         2.452022         2.162197        -1.214136
 C         2.130081         1.376148         0.064849
 O         2.306997        -0.519010        -0.916909
 H        -0.189313        -1.293556        -0.163569
 H        -0.813686         0.337654         0.383822
 H        -0.076056         0.073313        -1.340374
 H         1.766385        -0.152168         2.360443
 H         1.798718        -1.697410         1.392134
 H         4.240085         0.004075         1.815094
 H         4.075391        -1.250008         0.381505
 H         4.513285         1.981477        -1.252174
 H         3.616590         0.989363        -2.458857
 H         2.074655         2.105852         0.904247
