19
Iteration:   317
 C        -0.098503        -0.251896        -0.285228
 C         1.380221         0.016383         0.117970
 C         2.033109        -0.624417         1.378220
 C         3.609433        -0.389319         0.954003
 C         3.278876         0.376780        -0.293213
 C         3.719299         1.458100        -1.440527
 O         2.405000         2.124641        -1.157436
 C         2.203659         1.437050         0.070628
 O         2.270803        -0.468724        -0.841350
 H        -0.558727        -1.064623         0.274120
 H        -0.607466         0.706000        -0.181268
 H        -0.021262        -0.535684        -1.345881
 H         1.795369        -0.127912         2.363098
 H         1.751799        -1.658504         1.422152
 H         4.153054         0.115793         1.790689
 H         4.220041        -1.236964         0.817565
 H         4.576986         2.052954        -1.248775
 H         3.653142         0.987345        -2.433789
 H         2.254225         2.107589         1.001159
