19
Iteration:  2342charge 0 multiplicity 1
 C        -0.098731        -0.171331        -0.174633
 C         1.376091         0.009571         0.124778
 C         2.039102        -0.545740         1.392723
 C         3.669646        -0.350991         1.075696
 C         3.298137         0.358195        -0.329437
 C         3.737672         1.410037        -1.334759
 O         2.385547         1.981717        -1.325624
 C         2.113359         1.417995        -0.000359
 O         2.285568        -0.461725        -0.930337
 H        -0.098105        -0.585704        -1.202920
 H        -0.594400        -0.612577         0.708518
 H        -0.666795         0.816198        -0.180970
 H         1.832874        -0.028548         2.260309
 H         1.785878        -1.536502         1.658127
 H         4.047382         0.232541         1.843593
 H         4.092660        -1.353218         1.068578
 H         4.513784         2.244212        -1.161534
 H         4.002985         0.993407        -2.332192
 H         2.265885         2.081928         0.875104
