19
Iteration:   978
 C        -0.013820        -0.197839        -0.220721
 C         1.417933         0.012339         0.086024
 C         2.033525        -0.578342         1.431134
 C         3.583871        -0.427599         0.952131
 C         3.326246         0.456058        -0.312623
 C         3.676487         1.488972        -1.395916
 O         2.422428         2.165871        -1.273942
 C         2.152570         1.371931         0.117191
 O         2.226380        -0.610637        -0.881384
 H        -0.229028        -1.269124        -0.354341
 H        -0.515703         0.165826         0.709864
 H        -0.265004         0.413077        -1.104622
 H         1.746664         0.060157         2.329662
 H         1.816320        -1.657595         1.678068
 H         4.172848         0.139009         1.699337
 H         3.899043        -1.492524         0.809343
 H         4.577479         2.090396        -1.080889
 H         3.779914         1.132564        -2.444381
 H         2.058763         2.136931         0.850495
