19
Iteration:  1578
 C        -0.074956        -0.160537        -0.176309
 C         1.363199        -0.016949         0.137052
 C         2.125393        -0.596748         1.310318
 C         3.658213        -0.345747         1.037818
 C         3.246823         0.422865        -0.290439
 C         3.750454         1.372103        -1.314474
 O         2.343346         2.044078        -1.255530
 C         2.149997         1.427637        -0.004852
 O         2.246129        -0.483500        -0.952585
 H        -0.534190        -1.119223         0.020245
 H        -0.772501         0.512349         0.345861
 H        -0.158057         0.080879        -1.241473
 H         1.959703        -0.047158         2.338379
 H         1.779561        -1.648184         1.586184
 H         4.207702         0.249349         1.688111
 H         4.266782        -1.225791         0.932104
 H         4.503593         1.995308        -0.769127
 H         4.088650         0.941751        -2.316205
 H         2.137669         2.167431         0.847161
