19
Iteration:  3021
 C        -0.189065        -0.248848        -0.033374
 C         1.315825         0.141413         0.194242
 C         1.978586        -0.420741         1.474347
 C         3.500715        -0.104123         1.139901
 C         3.270346         0.397507        -0.258194
 C         3.871784         1.263263        -1.395842
 O         2.556899         1.790493        -1.546048
 C         2.161530         1.459831        -0.191181
 O         2.308156        -0.525315        -0.828599
 H        -0.831664         0.634278         0.216034
 H        -0.503548        -0.526648        -1.122360
 H        -0.397782        -1.200402         0.587623
 H         1.531649         0.072362         2.338074
 H         1.878072        -1.589265         1.376074
 H         4.106945         0.503463         1.877905
 H         4.022191        -1.054025         0.993691
 H         4.526607         2.097231        -1.113329
 H         4.257070         0.743899        -2.305564
 H         2.201852         2.319066         0.476477
