19
Iteration:   862
 C        -0.084461        -0.231988        -0.185019
 C         1.324153         0.013923         0.056965
 C         2.145850        -0.572272         1.459174
 C         3.618365        -0.378476         0.955138
 C         3.227015         0.382299        -0.303128
 C         3.716250         1.389344        -1.334697
 O         2.472348         2.020599        -1.252459
 C         2.061271         1.362519         0.100091
 O         2.265683        -0.345801        -0.988129
 H        -0.346542        -1.182468         0.320629
 H        -0.652794         0.563616         0.373121
 H        -0.236965        -0.266082        -1.277405
 H         1.910751         0.145661         2.184243
 H         1.876494        -1.658346         1.740217
 H         4.196979         0.324741         1.516291
 H         4.175212        -1.333602         0.719906
 H         4.580348         1.960199        -0.769086
 H         3.970937         1.123930        -2.417508
 H         2.156902         2.051804         0.967515
