19
Iteration:  4422
 C        -0.148820        -0.166254        -0.056151
 C         1.319003         0.182000         0.140750
 C         1.897425         0.101619         1.594504
 C         3.430238         0.192133         1.394995
 C         3.291922         0.517017        -0.117962
 C         3.977805         0.882514        -1.514096
 O         2.580676         1.341912        -1.903715
 C         2.095002         1.380120        -0.478269
 O         2.346625        -0.636012        -0.505721
 H        -0.658267        -0.463069         0.881745
 H        -0.597892         0.742724        -0.591046
 H        -0.308335        -0.915427        -0.817050
 H         1.457374         0.952002         2.237498
 H         1.502285        -0.820436         2.080297
 H         4.008234         0.809394         2.030157
 H         3.910888        -0.805849         1.585319
 H         4.639677         1.748998        -1.507343
 H         4.346519         0.038377        -2.087586
 H         2.064661         2.431127        -0.338757
