19
Iteration:  4995
 C        -0.064253        -0.183465        -0.163978
 C         1.359058         0.146642         0.175360
 C         1.876226         0.151213         1.642472
 C         3.451843         0.291511         1.350498
 C         3.261585         0.454247        -0.166096
 C         3.808322         0.794895        -1.536853
 O         2.553715         1.420362        -1.806655
 C         2.179963         1.343834        -0.411496
 O         2.370868        -0.647898        -0.551597
 H        -0.789961        -0.698288         0.609009
 H        -0.528163         0.807675        -0.352306
 H        -0.108330        -0.721060        -1.119528
 H         1.459111         1.031810         2.201278
 H         1.752424        -0.859241         2.186586
 H         3.976490         1.077487         1.962194
 H         3.753423        -0.722005         1.546173
 H         4.637329         1.495802        -1.479060
 H         4.202849        -0.089095        -2.067586
 H         1.931946         2.413836         0.054149
