19
Iteration:  3821charge 0 multiplicity 1
 C        -0.136371        -0.069109        -0.095105
 C         1.332641         0.038722         0.132371
 C         1.876868         0.204749         1.543382
 C         3.420648         0.288807         1.348156
 C         3.263211         0.352380        -0.144457
 C         4.016263         0.902296        -1.447006
 O         2.531036         1.457482        -1.799241
 C         2.138519         1.350484        -0.494765
 O         2.360602        -0.805610        -0.539717
 H        -0.780052         0.613111         0.561638
 H        -0.303185         0.131038        -1.188946
 H        -0.607540        -1.031816         0.135177
 H         1.414276         1.113972         1.994181
 H         1.615915        -0.652763         2.237729
 H         4.024010         1.098235         1.718391
 H         3.856149        -0.603761         1.678011
 H         4.753718         1.735184        -1.232273
 H         4.422808         0.179737        -2.117657
 H         1.948819         2.240586         0.012446
