19
Iteration:   352charge 0 multiplicity 1
 C        -0.065418        -0.149549        -0.181961
 C         1.393183        -0.059985         0.034402
 C         2.117681        -0.545686         1.349707
 C         3.635692        -0.356334         1.022627
 C         3.240299         0.309610        -0.354157
 C         3.741604         1.466695        -1.262522
 O         2.416591         2.091654        -1.175767
 C         2.086935         1.371154        -0.024450
 O         2.276870        -0.551288        -0.951329
 H        -0.584847        -1.188845        -0.240331
 H        -0.544268         0.344032         0.736444
 H        -0.392287         0.516310        -1.065396
 H         1.810602         0.247947         2.080758
 H         1.815361        -1.548238         1.795685
 H         3.803481         0.551644         1.573983
 H         4.327199        -1.257493         0.895109
 H         4.517380         2.085622        -0.833238
 H         4.070217         1.267261        -2.270260
 H         1.829447         2.004347         0.848369
