19
Iteration:  4248
 C        -0.170987        -0.075600        -0.097684
 C         1.337392         0.125753         0.063541
 C         1.817490         0.152667         1.616673
 C         3.444374         0.348633         1.437541
 C         3.315565         0.326355        -0.193856
 C         3.868362         0.884704        -1.489334
 O         2.630403         1.424140        -1.903288
 C         2.143951         1.294520        -0.511420
 O         2.400996        -0.775404        -0.421780
 H        -0.609516        -1.012678        -0.428179
 H        -0.639942         0.007948         0.846108
 H        -0.666796         0.634448        -0.769372
 H         1.438771         0.992925         2.144583
 H         1.481894        -0.712601         2.044055
 H         3.808573         1.315970         1.702149
 H         4.034842        -0.509496         1.830225
 H         4.709885         1.736805        -1.299242
 H         4.230818         0.263654        -2.315693
 H         2.192399         2.290943         0.027490
