19
Iteration:  3306charge 0 multiplicity 1
 C        -0.193341        -0.192657        -0.080339
 C         1.341086         0.096515         0.067743
 C         1.974848        -0.081756         1.571088
 C         3.508473        -0.030253         1.204486
 C         3.305549         0.412457        -0.249645
 C         3.925420         1.163572        -1.434578
 O         2.522260         1.681865        -1.647684
 C         2.094025         1.383884        -0.280310
 O         2.300715        -0.689947        -0.677290
 H        -0.713153        -0.087346         0.893036
 H        -0.593388         0.476308        -0.833550
 H        -0.467653        -1.191063        -0.463970
 H         1.559509         0.628965         2.268806
 H         1.636867        -1.087145         2.076592
 H         4.029825         0.781163         1.706366
 H         4.093518        -0.950706         1.211975
 H         4.762085         1.761846        -0.914666
 H         4.476876         0.579494        -2.265155
 H         2.122679         2.286577         0.423121
