19
Iteration:  1304
 C        -0.099402        -0.183299        -0.093749
 C         1.390426        -0.009451         0.035066
 C         2.054482        -0.578564         1.337109
 C         3.579796        -0.300679         0.967109
 C         3.252532         0.384918        -0.310923
 C         3.874729         1.432254        -1.279102
 O         2.413871         2.031383        -1.236847
 C         2.097551         1.386457         0.016341
 O         2.245004        -0.477868        -0.955094
 H        -0.387521        -1.089120        -0.616984
 H        -0.618371        -0.311960         0.864290
 H        -0.505169         0.630577        -0.675842
 H         1.876385        -0.312577         2.417219
 H         1.911827        -1.710468         1.242838
 H         3.955262         0.386390         1.717911
 H         4.253282        -1.221085         0.771477
 H         4.595347         2.093577        -0.758697
 H         4.025613         1.115440        -2.387073
 H         2.092971         2.092366         0.924255
