19
Iteration:  3309charge 0 multiplicity 1
 C        -0.175635        -0.223952        -0.080083
 C         1.354180         0.106128         0.075967
 C         1.953980        -0.084696         1.579966
 C         3.505298        -0.024836         1.207501
 C         3.298149         0.421641        -0.268982
 C         3.942581         1.153060        -1.445139
 O         2.523986         1.665071        -1.648239
 C         2.096568         1.428802        -0.239858
 O         2.294233        -0.692809        -0.688657
 H        -0.765778        -0.153670         0.901210
 H        -0.651019         0.523604        -0.780680
 H        -0.443745        -1.174733        -0.529393
 H         1.543633         0.712780         2.240630
 H         1.627507        -0.984214         1.904110
 H         4.127286         0.757552         1.703832
 H         4.079868        -1.016967         1.222179
 H         4.767394         1.733968        -0.935909
 H         4.383689         0.561354        -2.217287
 H         2.086687         2.259844         0.414593
