19
Iteration:  4720
 C        -0.113846        -0.110179        -0.167307
 C         1.344608         0.050397         0.129214
 C         1.928648         0.225503         1.622264
 C         3.434673         0.300677         1.382116
 C         3.294031         0.335986        -0.191900
 C         3.844808         0.774980        -1.497174
 O         2.565484         1.571876        -1.807546
 C         2.148448         1.305269        -0.434157
 O         2.370898        -0.767406        -0.543250
 H        -0.666724        -0.469149         0.688023
 H        -0.511395         0.879233        -0.333185
 H        -0.256840        -0.814974        -1.022219
 H         1.636401         1.135520         2.294967
 H         1.375396        -0.590386         2.198495
 H         3.842806         1.264587         1.728963
 H         4.022659        -0.414222         1.971323
 H         4.685987         1.554828        -1.489528
 H         4.008513        -0.172309        -2.092652
 H         1.860221         2.240905         0.036664
