19
Iteration:  3219charge 0 multiplicity 1
 C        -0.020952        -0.247647        -0.243671
 C         1.358440         0.134853         0.167595
 C         1.956440        -0.194926         1.574074
 C         3.490618        -0.064559         1.134617
 C         3.288423         0.416870        -0.235909
 C         3.778669         1.051492        -1.448750
 O         2.551912         1.824941        -1.631461
 C         2.088781         1.448465        -0.099237
 O         2.277621        -0.618102        -0.629457
 H        -0.264056         0.357119        -1.201325
 H         0.080842        -1.324261        -0.465409
 H        -0.704717        -0.009491         0.649639
 H         1.598116         0.566203         2.236086
 H         1.767441        -1.268562         1.831334
 H         3.983304         0.558548         1.901501
 H         4.004836        -1.051073         1.101108
 H         4.724651         1.684111        -1.625593
 H         3.634621         0.302817        -2.315171
 H         2.164408         2.440337         0.374522
