19
Iteration:   199charge 0 multiplicity 1
 C        -0.106630        -0.242906        -0.200718
 C         1.412644        -0.009310         0.104120
 C         2.042146        -0.695238         1.293625
 C         3.601682        -0.466739         0.977653
 C         3.323116         0.489259        -0.252811
 C         3.709513         1.441330        -1.386883
 O         2.382947         2.198220        -1.177107
 C         2.182068         1.422219         0.119397
 O         2.275719        -0.432699        -0.948098
 H        -0.457880         0.609599        -0.830418
 H        -0.243651        -1.253698        -0.681387
 H        -0.401048        -0.299270         0.907304
 H         1.696447        -0.403189         2.328813
 H         1.894707        -1.733840         1.136687
 H         4.343711        -0.233606         1.793725
 H         3.904640        -1.436924         0.567320
 H         4.478902         2.293374        -1.137796
 H         3.695761         0.988531        -2.374863
 H         2.119445         2.076959         0.938837
