19
Iteration:     1charge 0 multiplicity 1
 C        -0.079747        -0.194651        -0.159933
 C         1.390820         0.008638         0.065257
 C         2.111518        -0.749720         1.243579
 C         3.624496        -0.489797         0.849888
 C         3.272937         0.414816        -0.319958
 C         3.687764         1.537383        -1.260904
 O         2.390802         2.170260        -1.032612
 C         2.152797         1.349754         0.140019
 O         2.261615        -0.387288        -1.032743
 H        -0.648466         0.133909         0.716030
 H        -0.413548         0.378392        -1.028892
 H        -0.300266        -1.252741        -0.335442
 H         1.858597        -0.358734         2.233807
 H         1.852017        -1.809612         1.210048
 H         4.190539         0.015197         1.636251
 H         4.145378        -1.403845         0.559411
 H         4.506762         2.172679        -0.900339
 H         3.839477         1.262374        -2.307685
 H         2.146884         1.934402         1.064140
