19
Iteration:  1271
 C        -0.061579        -0.251253        -0.196785
 C         1.368398         0.037089         0.052432
 C         2.025916        -0.656166         1.356297
 C         3.584479        -0.443329         1.044840
 C         3.319641         0.477418        -0.258385
 C         3.724358         1.355799        -1.467281
 O         2.366826         2.087025        -1.203359
 C         2.195582         1.500459         0.069919
 O         2.283898        -0.391324        -0.886941
 H        -0.056799        -1.306667        -0.445850
 H        -0.699794         0.036686         0.641705
 H        -0.283187         0.286183        -1.098889
 H         1.949777        -0.299203         2.410261
 H         1.660594        -1.713498         1.315668
 H         3.999901         0.086097         1.904304
 H         4.181948        -1.412837         1.016716
 H         4.602957         2.005644        -1.470740
 H         3.712460         0.824326        -2.492717
 H         2.181546         2.239488         0.949369
