19
Iteration:  4307charge 0 multiplicity 1
 C        -0.137079        -0.296384        -0.174909
 C         1.302910         0.281604         0.174649
 C         1.935655         0.246971         1.615562
 C         3.418696         0.245409         1.441225
 C         3.349720         0.382695        -0.157723
 C         3.919086         0.748524        -1.503073
 O         2.571917         1.392713        -1.855952
 C         2.163953         1.430783        -0.499120
 O         2.261478        -0.636317        -0.531448
 H         0.083974        -1.335384        -0.408912
 H        -0.827734        -0.154975         0.715447
 H        -0.513241         0.278254        -1.015387
 H         1.626200         1.102495         2.277608
 H         1.487583        -0.666024         2.109722
 H         4.127587         1.017727         1.883700
 H         3.842509        -0.673462         1.856564
 H         4.745800         1.547368        -1.256241
 H         4.210715        -0.073068        -2.220530
 H         1.995541         2.463744        -0.018246
