19
Iteration:    21
 C        -0.054610        -0.184353        -0.203091
 C         1.402979        -0.062477        -0.052125
 C         2.130137        -0.630818         1.322534
 C         3.625618        -0.440718         0.919195
 C         3.300238         0.387801        -0.351983
 C         3.678761         1.467729        -1.337862
 O         2.406570         2.293383        -0.849015
 C         2.144183         1.281680         0.163908
 O         2.231967        -0.487759        -1.163513
 H        -0.512607        -0.402494         0.806901
 H        -0.619718         0.627318        -0.635815
 H        -0.349228        -1.048312        -0.776256
 H         1.821658         0.061894         2.036844
 H         1.743177        -1.589649         1.786961
 H         4.107304         0.199033         1.600984
 H         4.240522        -1.373090         0.801534
 H         4.536007         2.075520        -1.147214
 H         3.495158         1.156414        -2.405503
 H         2.140346         1.691933         1.100622
