19
Iteration:  4150
 C        -0.139732        -0.090107        -0.127688
 C         1.284288         0.120170         0.097824
 C         1.904270         0.249002         1.650826
 C         3.461524         0.358387         1.404123
 C         3.304743         0.255464        -0.168185
 C         3.889094         0.910354        -1.478042
 O         2.576522         1.455604        -1.869686
 C         2.125947         1.373983        -0.409209
 O         2.381936        -0.902044        -0.575004
 H        -0.668640        -0.625533         0.644444
 H        -0.646757         0.807023        -0.288533
 H        -0.364531        -0.692522        -1.004660
 H         1.433695         1.128480         2.063881
 H         1.624503        -0.567370         2.198132
 H         3.966140         1.199973         1.708520
 H         4.076141        -0.460139         1.826793
 H         4.611475         1.784404        -1.284119
 H         4.334769         0.176609        -2.112174
 H         1.890339         2.335202         0.210479
