19
Iteration:  1363charge 0 multiplicity 1
 C        -0.070486        -0.206972        -0.116233
 C         1.405828         0.030418         0.066914
 C         2.021849        -0.588131         1.324635
 C         3.590303        -0.440432         0.980628
 C         3.285985         0.399730        -0.237769
 C         3.719408         1.448167        -1.297392
 O         2.453583         2.046532        -1.288526
 C         2.127022         1.388243         0.086228
 O         2.255855        -0.411722        -0.995855
 H        -0.039057        -1.323149        -0.312324
 H        -0.725264         0.004607         0.762858
 H        -0.556505         0.215921        -1.048765
 H         1.879752         0.077093         2.141857
 H         1.740399        -1.551606         1.684192
 H         3.997336         0.194694         1.867558
 H         4.346796        -1.230941         0.791467
 H         4.535582         2.119352        -1.206441
 H         3.856194         1.012238        -2.233212
 H         2.198359         2.063398         0.908950
