19
Iteration:  1291
 C        -0.106169        -0.218304        -0.146383
 C         1.346031         0.124766         0.134355
 C         2.085952        -0.618274         1.302005
 C         3.603425        -0.323384         1.019745
 C         3.276547         0.418994        -0.256832
 C         3.657775         1.367696        -1.286085
 O         2.444425         2.025163        -1.261435
 C         2.165577         1.343816         0.057871
 O         2.311157        -0.411052        -1.020428
 H        -0.099831        -1.208225        -0.595826
 H        -0.623905        -0.188476         0.789281
 H        -0.613517         0.487501        -0.772493
 H         1.520646        -0.247482         2.266508
 H         1.892715        -1.688308         1.212067
 H         4.252671         0.250590         1.613812
 H         4.049201        -1.297280         0.986208
 H         4.524882         2.120641        -1.090946
 H         4.019234         0.837424        -2.223247
 H         2.184021         2.077755         0.920303
