19
Iteration:  1775charge 0 multiplicity 1
 C        -0.151959        -0.157859        -0.104040
 C         1.305354        -0.056922         0.082074
 C         2.199968        -0.550383         1.397829
 C         3.604412        -0.229011         1.019190
 C         3.261629         0.380841        -0.379488
 C         3.808472         1.447783        -1.293993
 O         2.477309         2.091530        -1.187046
 C         2.086062         1.253550        -0.017670
 O         2.217840        -0.545087        -1.017485
 H        -0.435819        -1.203385         0.205712
 H        -0.775625         0.625261         0.351489
 H        -0.294444        -0.143881        -1.252942
 H         1.963734        -0.018418         2.257294
 H         1.803928        -1.509026         1.479197
 H         4.000239         0.629254         1.568741
 H         4.332956        -1.106960         1.035407
 H         4.614149         2.033471        -0.841783
 H         4.045352         1.107855        -2.303771
 H         1.800436         1.891180         0.817959
