19
Iteration:  3686
 C        -0.158750        -0.133083        -0.128298
 C         1.321719         0.155125         0.088786
 C         1.891129         0.059677         1.585265
 C         3.457652         0.183424         1.353584
 C         3.318900         0.392470        -0.171585
 C         3.910708         1.019766        -1.435057
 O         2.538861         1.400245        -1.793672
 C         2.159840         1.391732        -0.432613
 O         2.313377        -0.672195        -0.579616
 H        -0.220204        -1.079902        -0.636038
 H        -0.523210        -0.350325         0.912686
 H        -0.391404         0.834775        -0.554186
 H         1.517791         0.811136         2.330399
 H         1.531607        -1.026825         1.977564
 H         3.980287         1.018843         1.822242
 H         4.041210        -0.742341         1.501127
 H         4.713641         1.709032        -1.264167
 H         4.364256         0.138753        -2.068009
 H         2.082429         2.291851         0.113358
