19
Iteration:   338charge 0 multiplicity 1
 C        -0.106019        -0.145783        -0.221869
 C         1.363246         0.044761         0.085519
 C         2.086232        -0.527429         1.395513
 C         3.611946        -0.285456         0.955369
 C         3.291120         0.367655        -0.346523
 C         3.700283         1.437087        -1.289952
 O         2.419448         2.158165        -1.167422
 C         2.106347         1.310708         0.036768
 O         2.303293        -0.670212        -0.954972
 H        -0.364494        -1.171404        -0.093041
 H        -0.788630         0.500190         0.297153
 H        -0.204603        -0.002231        -1.304307
 H         1.869625        -0.104982         2.413298
 H         1.823961        -1.561306         1.394543
 H         4.365408         0.197503         1.671987
 H         4.106158        -1.238999         0.890150
 H         4.475425         2.040763        -0.802527
 H         3.901017         1.222773        -2.366519
 H         2.157373         1.998472         0.974239
