19
Iteration:  3935
 C        -0.103760        -0.214433        -0.180274
 C         1.390901         0.156053         0.139306
 C         1.856349         0.341193         1.584628
 C         3.416418         0.342282         1.381907
 C         3.242796         0.291447        -0.204901
 C         3.943614         0.807007        -1.490575
 O         2.548630         1.504783        -1.831900
 C         2.138517         1.337462        -0.412282
 O         2.323746        -0.850489        -0.466875
 H        -0.420518        -1.185294         0.243497
 H        -0.692129         0.692815         0.113632
 H        -0.164195        -0.189440        -1.293138
 H         1.641104         1.299020         2.070483
 H         1.542322        -0.429196         2.227492
 H         4.022734         1.191178         1.791828
 H         3.892850        -0.625924         1.792047
 H         4.651038         1.695126        -1.279405
 H         4.346173         0.150584        -2.330782
 H         2.152346         2.273405         0.120305
