19
Iteration:  2634charge 0 multiplicity 1
 C        -0.148257        -0.164425        -0.173981
 C         1.384321         0.004939         0.075825
 C         2.048139        -0.491321         1.453846
 C         3.624870        -0.278646         1.006860
 C         3.334088         0.356667        -0.333630
 C         3.734622         1.395734        -1.418703
 O         2.415214         2.073704        -1.171518
 C         2.127568         1.304549        -0.041332
 O         2.291877        -0.568617        -0.935262
 H        -0.370614        -0.578654        -1.172026
 H        -0.534382        -0.939962         0.429773
 H        -0.473231         0.880423        -0.031769
 H         1.756722         0.223104         2.253428
 H         2.012027        -1.496748         1.723287
 H         3.961811         0.411998         1.739382
 H         4.169001        -1.247928         1.289507
 H         4.633676         2.133726        -1.129657
 H         3.849066         1.043824        -2.453386
 H         1.963608         2.061385         0.726019
