19
Iteration:  1368charge 0 multiplicity 1
 C        -0.087963        -0.254092        -0.154043
 C         1.393025         0.057771         0.106517
 C         2.074827        -0.590008         1.369224
 C         3.584853        -0.483151         1.017216
 C         3.308509         0.454197        -0.229146
 C         3.695268         1.414397        -1.312038
 O         2.441684         2.074879        -1.308929
 C         2.158349         1.382617         0.079838
 O         2.249627        -0.382135        -1.005370
 H        -0.067150        -1.337847        -0.257247
 H        -0.671066         0.107194         0.695687
 H        -0.338729         0.202402        -1.104594
 H         1.589040         0.016517         2.273016
 H         1.605664        -1.621390         1.502168
 H         4.025925         0.106567         1.766883
 H         4.312108        -1.240265         0.744086
 H         4.662898         2.035290        -1.248870
 H         3.700372         0.921795        -2.367757
 H         2.142700         2.059114         0.986890
