19
Iteration:  2000charge 0 multiplicity 1
 C        -0.087100        -0.119105        -0.130747
 C         1.378244        -0.073634         0.029279
 C         2.031106        -0.545828         1.406042
 C         3.665408        -0.285673         1.037239
 C         3.196563         0.405205        -0.280014
 C         3.737832         1.431332        -1.391596
 O         2.425830         2.068461        -1.218163
 C         2.126919         1.320982        -0.049769
 O         2.317980        -0.543005        -0.954527
 H        -0.679003        -0.996784         0.236880
 H        -0.467262         0.724598         0.542922
 H        -0.244571        -0.040596        -1.243449
 H         1.767676         0.034427         2.344493
 H         1.647163        -1.600945         1.671048
 H         4.109216         0.308145         1.759330
 H         4.330882        -1.112805         0.973591
 H         4.563685         2.036865        -1.123741
 H         4.023035         0.841610        -2.280408
 H         2.005810         1.904411         0.925830
