19
Iteration:   363
 C        -0.091010        -0.151701        -0.123452
 C         1.380394        -0.094485         0.015686
 C         2.075638        -0.559189         1.377584
 C         3.569075        -0.306920         1.006409
 C         3.286504         0.408493        -0.286217
 C         3.773385         1.435181        -1.248871
 O         2.423649         2.042237        -1.256759
 C         2.090905         1.273215        -0.002477
 O         2.288571        -0.440144        -1.033704
 H        -0.529514        -1.177274        -0.460591
 H        -0.358748        -0.040914         0.969952
 H        -0.585566         0.690633        -0.712397
 H         1.708248         0.164997         2.148069
 H         1.869877        -1.602791         1.798081
 H         4.289078         0.313022         1.615884
 H         4.228629        -1.249736         1.117794
 H         4.387002         2.173929        -0.779651
 H         4.049809         1.107284        -2.234153
 H         2.071241         2.036718         0.804181
