19
Iteration:  4079
 C        -0.089200        -0.218548        -0.185169
 C         1.329047         0.145150         0.144022
 C         1.872758         0.232758         1.629134
 C         3.413571         0.267220         1.314496
 C         3.264621         0.438991        -0.140471
 C         3.927537         0.769456        -1.584948
 O         2.571287         1.399464        -1.826818
 C         2.134856         1.485331        -0.379365
 O         2.377751        -0.737990        -0.462567
 H        -0.385338        -1.115348         0.355854
 H        -0.764022         0.617710         0.215153
 H        -0.321402        -0.420772        -1.235344
 H         1.539111         1.173254         2.027944
 H         1.361400        -0.606060         2.203692
 H         3.814631         1.224315         1.830236
 H         3.889709        -0.572612         1.826866
 H         4.810249         1.431600        -1.473072
 H         4.167361        -0.127191        -2.263931
 H         2.020240         2.446232         0.059132
