19
Iteration:   790
 C        -0.084503        -0.080315        -0.129422
 C         1.445413        -0.044429         0.007193
 C         2.131971        -0.544437         1.365774
 C         3.632950        -0.216899         0.999577
 C         3.196097         0.380725        -0.308713
 C         3.705865         1.409346        -1.261530
 O         2.434312         2.012584        -1.151750
 C         2.094645         1.274315         0.070359
 O         2.247473        -0.538876        -1.112391
 H        -0.442365        -0.910531         0.495169
 H        -0.566731         0.818850         0.274676
 H        -0.289801        -0.311476        -1.171046
 H         1.772758         0.050745         2.276566
 H         1.991327        -1.603971         1.394494
 H         4.008665         0.588462         1.672066
 H         4.182540        -1.143303         0.833392
 H         4.449417         1.996087        -0.805329
 H         3.994441         1.027724        -2.215448
 H         2.065517         1.871234         1.040256
