19
Iteration:  4046
 C        -0.048381        -0.223577        -0.296179
 C         1.328834         0.109287         0.129298
 C         1.935363         0.418107         1.611916
 C         3.406536         0.291273         1.401611
 C         3.289388         0.268072        -0.258162
 C         3.933904         0.779061        -1.557432
 O         2.549738         1.559907        -1.804144
 C         2.125758         1.368002        -0.429622
 O         2.284371        -0.845871        -0.309594
 H        -0.083994        -1.296022        -0.318256
 H        -0.855959        -0.042829         0.499099
 H        -0.367486         0.275375        -1.215524
 H         1.670249         1.313583         2.124135
 H         1.574602        -0.457473         2.241860
 H         4.000774         1.269885         1.646406
 H         3.967932        -0.574032         1.854707
 H         4.663805         1.599874        -1.322496
 H         4.018573         0.181834        -2.549665
 H         1.959150         2.258952         0.136917
