19
Iteration:   627charge 0 multiplicity 1
 C        -0.011302        -0.173878        -0.119762
 C         1.394125         0.105493         0.101761
 C         2.021995        -0.686510         1.327046
 C         3.587728        -0.376184         0.986589
 C         3.261390         0.460793        -0.171893
 C         3.746774         1.384373        -1.329781
 O         2.321933         2.009227        -1.368208
 C         2.162047         1.470314         0.041215
 O         2.321743        -0.447675        -0.915408
 H        -0.148731        -1.192994        -0.394353
 H        -0.641145        -0.084071         0.716791
 H        -0.491570         0.400631        -0.872011
 H         1.783031        -0.246121         2.299551
 H         1.804659        -1.717593         1.214750
 H         4.168070         0.154847         1.710779
 H         4.044290        -1.310089         0.612239
 H         4.565902         2.150831        -1.106237
 H         3.982145         0.773564        -2.195175
 H         2.223569         1.987801         1.022052
