19
Iteration:   980charge 0 multiplicity 1
 C        -0.028890        -0.202718        -0.212883
 C         1.411903        -0.000664         0.059726
 C         2.039863        -0.566488         1.447165
 C         3.589957        -0.431618         0.950530
 C         3.321413         0.466551        -0.318104
 C         3.679338         1.498584        -1.399727
 O         2.424524         2.157675        -1.255354
 C         2.173187         1.372264         0.101378
 O         2.229048        -0.613699        -0.886561
 H        -0.266543        -1.233380        -0.343078
 H        -0.507546         0.226898         0.687408
 H        -0.249385         0.389995        -1.079664
 H         1.765659         0.075317         2.301448
 H         1.773086        -1.695773         1.681108
 H         4.139655         0.134354         1.674412
 H         3.905529        -1.500725         0.890710
 H         4.496081         2.083724        -1.064360
 H         3.800023         1.120278        -2.432635
 H         1.990417         2.172903         0.911490
