19
Iteration:  2081
 C        -0.125301        -0.220672        -0.162629
 C         1.317019         0.047888         0.085630
 C         2.081554        -0.441001         1.404169
 C         3.616988        -0.337751         0.962026
 C         3.295380         0.359583        -0.380052
 C         3.756595         1.393679        -1.359693
 O         2.432673         2.120304        -1.213080
 C         2.093183         1.411731        -0.043518
 O         2.326407        -0.614973        -0.868619
 H        -0.074029        -1.075367        -0.850055
 H        -0.698201        -0.417264         0.729407
 H        -0.764494         0.515241        -0.605233
 H         1.974365         0.438338         2.198642
 H         1.824321        -1.407816         1.908222
 H         4.150285         0.175387         1.862370
 H         3.807355        -1.475323         0.883844
 H         4.712656         1.847050        -0.967199
 H         3.965859         0.876951        -2.320817
 H         2.077644         1.985813         0.887381
