19
Iteration:  4184charge 0 multiplicity 1
 C        -0.119077        -0.259957        -0.232486
 C         1.352643         0.208207         0.178373
 C         1.788651         0.297723         1.642821
 C         3.518158         0.226718         1.309581
 C         3.280211         0.392975        -0.143792
 C         3.865543         0.807736        -1.599916
 O         2.599701         1.480164        -1.838728
 C         2.153964         1.408171        -0.395012
 O         2.349527        -0.755523        -0.377810
 H        -0.283484        -1.200935         0.252806
 H        -0.863311         0.484875         0.083376
 H         0.060598        -0.340690        -1.306715
 H         1.426062         1.175271         2.232057
 H         1.441119        -0.568218         2.105907
 H         4.090480         0.925504         1.851384
 H         3.621046        -0.873364         1.476912
 H         4.769164         1.499817        -1.698490
 H         4.008262        -0.051747        -2.239380
 H         2.015042         2.460126         0.086699
