19
Iteration:   113
 C        -0.061932        -0.141096        -0.026566
 C         1.419428        -0.018799        -0.034815
 C         2.108765        -0.687036         1.206882
 C         3.606393        -0.507007         0.912596
 C         3.303697         0.453365        -0.257211
 C         3.664164         1.608252        -1.183416
 O         2.391854         2.165736        -1.186891
 C         2.087904         1.340196         0.041473
 O         2.304497        -0.527795        -1.037657
 H        -0.462482        -1.045845        -0.458296
 H        -0.386771        -0.215104         1.040858
 H        -0.642896         0.706132        -0.449686
 H         1.766380        -0.322501         2.226791
 H         1.782145        -1.700970         1.220869
 H         4.289038        -0.149110         1.748069
 H         4.048764        -1.400300         0.455470
 H         4.322137         2.217588        -0.505008
 H         4.011640         1.340255        -2.149325
 H         2.135327         1.900962         1.041043
