19
Iteration:  1721charge 0 multiplicity 1
 C        -0.102020        -0.172142        -0.122248
 C         1.367656         0.038811         0.073100
 C         2.018095        -0.617237         1.411877
 C         3.623523        -0.391748         1.029544
 C         3.320951         0.489311        -0.187653
 C         3.735211         1.427616        -1.368493
 O         2.383172         1.950509        -1.297357
 C         2.137047         1.445116         0.005088
 O         2.333670        -0.433439        -0.993556
 H        -0.140411        -1.262620        -0.216181
 H        -0.526026        -0.076439         0.867436
 H        -0.550391         0.403971        -0.975535
 H         1.809468        -0.217255         2.362614
 H         1.608978        -1.598124         1.447730
 H         4.385408         0.028400         1.613421
 H         4.056178        -1.321855         0.742344
 H         4.414233         2.229035        -1.327591
 H         3.863408         0.803447        -2.244212
 H         1.950311         2.213380         0.782216
