19
Iteration:  2593charge 0 multiplicity 1
 C        -0.124131        -0.192034        -0.033250
 C         1.413667         0.088298         0.103311
 C         2.066478        -0.667980         1.319698
 C         3.574387        -0.330593         1.070975
 C         3.298495         0.388662        -0.239777
 C         3.853359         1.469984        -1.309865
 O         2.407264         1.942042        -1.403995
 C         2.094211         1.457192        -0.081762
 O         2.264054        -0.463381        -0.876851
 H        -0.392007        -0.558907        -1.065414
 H        -0.579645        -0.896447         0.720394
 H        -0.707959         0.669477         0.087808
 H         1.790177        -0.238035         2.347675
 H         1.804267        -1.722216         1.064151
 H         4.052232         0.455144         1.715566
 H         4.184607        -1.275890         0.861711
 H         4.579185         2.156742        -1.055777
 H         4.170098         1.087329        -2.289915
 H         1.787142         2.208266         0.647873
