19
Iteration:  1460charge 0 multiplicity 1
 C        -0.120096        -0.115876        -0.028809
 C         1.408496         0.040995         0.037288
 C         2.089176        -0.606443         1.313265
 C         3.608429        -0.359933         1.036314
 C         3.272198         0.414101        -0.275272
 C         3.778845         1.488525        -1.242566
 O         2.345029         2.045197        -1.292267
 C         2.132225         1.349696        -0.102991
 O         2.313953        -0.566549        -0.962005
 H        -0.409078        -1.165919        -0.031447
 H        -0.540828         0.407402         0.823696
 H        -0.544013         0.400482        -0.909986
 H         1.555085        -0.275630         2.188975
 H         1.876120        -1.669908         1.279215
 H         4.310429         0.124205         1.787765
 H         3.972711        -1.345090         0.836038
 H         4.547543         2.099894        -0.696119
 H         4.140110         1.241502        -2.240903
 H         2.061516         2.098100         0.672514
