19
Iteration:  2703
 C        -0.120013        -0.196619        -0.114783
 C         1.365211        -0.013084         0.100352
 C         2.062511        -0.517206         1.413704
 C         3.542540        -0.346880         1.039710
 C         3.320827         0.466734        -0.245701
 C         3.777505         1.290788        -1.340439
 O         2.405424         1.979877        -1.356298
 C         2.160242         1.466847        -0.049164
 O         2.293187        -0.435006        -0.926450
 H        -0.734321         0.499666        -0.673310
 H        -0.246445        -1.166853        -0.714945
 H        -0.435258        -0.292047         0.883821
 H         1.760338        -0.058099         2.419410
 H         1.768312        -1.626843         1.406907
 H         4.204828         0.309336         1.739278
 H         4.139602        -1.283677         0.850846
 H         4.376151         2.145093        -0.952614
 H         4.157894         0.839159        -2.318179
 H         2.069789         2.218879         0.728708
