19
Iteration:  2622charge 0 multiplicity 1
 C        -0.135438        -0.161163        -0.106897
 C         1.363185        -0.055549         0.028516
 C         2.097539        -0.523056         1.397396
 C         3.584875        -0.229393         1.073717
 C         3.274083         0.344824        -0.322535
 C         3.766181         1.377453        -1.339733
 O         2.411292         2.050877        -1.276023
 C         2.104875         1.361341         0.006573
 O         2.348295        -0.542835        -0.943970
 H        -0.427718        -0.399272        -1.124947
 H        -0.670567        -0.640865         0.658300
 H        -0.629691         0.872634         0.001289
 H         1.723111        -0.031468         2.277722
 H         1.839699        -1.552609         1.496177
 H         4.197787         0.463164         1.558347
 H         4.140493        -1.170994         0.834704
 H         4.702112         2.102872        -1.078155
 H         3.872641         0.988099        -2.376233
 H         1.982910         1.968071         0.920714
