19
Iteration:  3883
 C        -0.100234        -0.215436        -0.168136
 C         1.367798         0.220703         0.116172
 C         1.883899         0.135813         1.665396
 C         3.418805         0.260331         1.343994
 C         3.240524         0.440804        -0.122356
 C         3.819295         0.745158        -1.446500
 O         2.650607         1.389613        -1.839046
 C         2.136115         1.473616        -0.439666
 O         2.342844        -0.647142        -0.524759
 H        -0.594353        -0.527381         0.701966
 H        -0.661807         0.566689        -0.744828
 H         0.073482        -0.985921        -0.899419
 H         1.625118         0.941213         2.297349
 H         1.680852        -0.850476         2.218157
 H         3.961838         1.171944         1.687939
 H         3.996136        -0.649959         1.582125
 H         4.632393         1.442336        -1.574793
 H         3.906752        -0.219360        -2.074211
 H         1.843092         2.583794        -0.268227
