19
Iteration:    48
 C        -0.160053        -0.252619        -0.210020
 C         1.307668         0.005732         0.087380
 C         2.110804        -0.723608         1.263197
 C         3.621851        -0.393327         0.843684
 C         3.260540         0.432295        -0.386813
 C         3.696598         1.505837        -1.407826
 O         2.501735         2.331885        -0.917873
 C         2.163041         1.309782         0.142755
 O         2.278482        -0.544840        -0.952541
 H        -0.607286        -0.945894         0.498534
 H        -0.798860         0.656762        -0.264548
 H        -0.187897        -0.770426        -1.206107
 H         1.829208        -0.330472         2.322808
 H         1.885513        -1.771582         1.252836
 H         4.177906         0.156968         1.691546
 H         4.147319        -1.307901         0.594150
 H         4.678406         2.034034        -1.168269
 H         3.701851         1.339234        -2.469309
 H         2.230768         1.855251         1.189476
