19
Iteration:  3765charge 0 multiplicity 1
 C        -0.029901        -0.279069        -0.219744
 C         1.290282         0.226122         0.146265
 C         1.862706         0.177503         1.625316
 C         3.414776         0.178940         1.350669
 C         3.275714         0.429826        -0.133111
 C         3.815367         0.804150        -1.576039
 O         2.607354         1.478741        -1.829922
 C         2.238687         1.451706        -0.345082
 O         2.283354        -0.637387        -0.482544
 H        -0.519648         0.527194        -0.797022
 H         0.164942        -1.276519        -0.673516
 H        -0.469244        -0.543145         0.735540
 H         1.557088         0.950762         2.316627
 H         1.460455        -0.861584         2.026568
 H         3.937016         1.004069         1.789143
 H         3.900364        -0.722244         1.518430
 H         4.719623         1.460730        -1.588274
 H         3.885224        -0.147928        -2.179478
 H         2.249913         2.367654         0.162239
