19
Iteration:   672
 C        -0.108857        -0.154314        -0.103893
 C         1.350891        -0.014076         0.065053
 C         2.030934        -0.549377         1.377002
 C         3.598034        -0.231687         0.958101
 C         3.293100         0.386215        -0.379792
 C         3.706858         1.410174        -1.275801
 O         2.442341         2.170872        -1.164194
 C         2.228228         1.352985        -0.084507
 O         2.287779        -0.692889        -0.942149
 H        -0.361728        -0.953465        -0.803725
 H        -0.606084        -0.564860         0.757792
 H        -0.717790         0.668854        -0.465724
 H         1.682492        -0.018161         2.305467
 H         1.793940        -1.559743         1.397256
 H         4.025403         0.532888         1.640971
 H         4.160702        -1.138776         0.921745
 H         4.566806         2.015018        -0.772042
 H         3.963830         1.045721        -2.300510
 H         2.167979         2.030932         0.837975
