19
Iteration:  2242
 C        -0.074968        -0.341847        -0.219710
 C         1.307370         0.145116         0.190969
 C         2.091174        -0.530473         1.395894
 C         3.557365        -0.406073         1.017524
 C         3.265771         0.444232        -0.249443
 C         3.732596         1.363447        -1.425570
 O         2.526519         2.104291        -1.229828
 C         2.141930         1.434850         0.001991
 O         2.233919        -0.492413        -0.901440
 H        -0.150629        -1.425565         0.147819
 H        -0.842731         0.352631         0.295569
 H        -0.128354        -0.149297        -1.420126
 H         1.834361        -0.125924         2.355246
 H         1.813279        -1.559319         1.346091
 H         4.146551         0.228952         1.602459
 H         4.026935        -1.388136         0.731360
 H         4.664739         2.062520        -1.434958
 H         3.637551         0.773992        -2.369910
 H         2.121474         2.243597         0.808455
