19
Iteration:  4969charge 0 multiplicity 1
 C        -0.125236        -0.156151        -0.004381
 C         1.359891         0.220501         0.049880
 C         1.843028         0.024802         1.551013
 C         3.450451         0.216684         1.402122
 C         3.277203         0.470921        -0.130695
 C         3.842544         0.898573        -1.475035
 O         2.546865         1.369416        -1.869681
 C         2.208122         1.465617        -0.523974
 O         2.382971        -0.694956        -0.485595
 H        -0.607305        -0.592922         0.895184
 H        -0.679013         0.764480        -0.267322
 H        -0.292313        -0.864714        -0.876702
 H         1.480492         0.703200         2.272756
 H         1.664681        -1.001453         1.740721
 H         3.688100         1.236331         1.839202
 H         4.056426        -0.594410         1.864080
 H         4.841886         1.521410        -1.517732
 H         4.092083        -0.059391        -2.052791
 H         2.158162         2.487132        -0.153727
