19
Iteration:  2842
 C        -0.171540        -0.135306        -0.172833
 C         1.375393         0.031370         0.077166
 C         2.083262        -0.422129         1.456353
 C         3.625575        -0.199640         1.073089
 C         3.308144         0.328735        -0.338085
 C         3.769167         1.307150        -1.322557
 O         2.460433         1.953484        -1.346835
 C         2.069127         1.358879        -0.057419
 O         2.328938        -0.569842        -0.887463
 H        -0.943894        -0.576375         0.595238
 H        -0.670524         0.880304        -0.215994
 H        -0.394261        -0.727587        -1.107503
 H         1.990614         0.124140         2.394498
 H         1.782029        -1.414626         1.651422
 H         3.887201         0.474985         1.828847
 H         4.222772        -1.138433         1.135215
 H         4.542616         1.915330        -0.919561
 H         3.942078         0.929437        -2.313587
 H         1.853775         2.264903         0.600497
