19
Iteration:  2017
 C        -0.132937        -0.143524        -0.076616
 C         1.421960         0.077593         0.097755
 C         2.073292        -0.649961         1.301009
 C         3.516323        -0.290098         1.050047
 C         3.366264         0.436199        -0.265865
 C         3.725471         1.353103        -1.320572
 O         2.410822         2.067177        -1.344238
 C         2.098138         1.420051        -0.004662
 O         2.310350        -0.573736        -0.924000
 H        -0.386084        -1.209281         0.035754
 H        -0.553167         0.525130         0.676991
 H        -0.443604         0.099611        -1.076724
 H         1.668356        -0.316474         2.250975
 H         2.070968        -1.722934         1.329176
 H         4.025081         0.354346         1.893178
 H         4.160469        -1.226100         1.011959
 H         4.600772         2.064194        -1.091754
 H         3.946806         1.021517        -2.356132
 H         2.093562         2.181994         0.735261
