19
Iteration:  4658charge 0 multiplicity 1
 C        -0.078064        -0.166853        -0.138080
 C         1.369214         0.199409         0.180409
 C         1.894170         0.202039         1.694947
 C         3.441488         0.232533         1.312941
 C         3.248456         0.464503        -0.161467
 C         3.919532         0.842087        -1.494225
 O         2.631676         1.285959        -1.893616
 C         2.096997         1.401448        -0.391142
 O         2.251508        -0.665843        -0.556185
 H        -0.338166        -1.316449        -0.103621
 H        -0.696785         0.441642         0.532651
 H        -0.339608         0.254506        -1.154295
 H         1.490808         0.908910         2.356733
 H         1.768503        -0.810225         2.212564
 H         3.996229         1.061752         1.900348
 H         3.918717        -0.692344         1.692814
 H         4.578355         1.710143        -1.532815
 H         4.355544        -0.002580        -2.055951
 H         1.983653         2.499193        -0.206483
