19
Iteration:  4426charge 0 multiplicity 1
 C        -0.138169        -0.173232        -0.044689
 C         1.305913         0.198673         0.159037
 C         1.886232         0.127033         1.598250
 C         3.390479         0.174968         1.348842
 C         3.300802         0.506935        -0.143993
 C         3.933073         0.877544        -1.466959
 O         2.589555         1.348138        -1.914846
 C         2.110127         1.353684        -0.459807
 O         2.384898        -0.622537        -0.523201
 H        -0.537149        -0.484323         0.908287
 H        -0.533142         0.738920        -0.592248
 H        -0.224672        -0.946830        -0.826825
 H         1.468537         0.898091         2.228534
 H         1.492269        -0.750200         2.031978
 H         3.922846         0.909431         2.101241
 H         3.970046        -0.762654         1.529700
 H         4.710657         1.616579        -1.540436
 H         4.163641        -0.053981        -2.011753
 H         2.066843         2.520629        -0.221756
