19
Iteration:  2394
 C        -0.095993        -0.267136        -0.233189
 C         1.332609         0.018956         0.102086
 C         2.091213        -0.498857         1.428764
 C         3.585219        -0.308605         1.034332
 C         3.261200         0.384669        -0.269987
 C         3.697908         1.278842        -1.431191
 O         2.498121         2.151717        -1.257256
 C         2.171933         1.448521        -0.007957
 O         2.251484        -0.523400        -0.905621
 H        -0.361897        -0.177227        -1.277534
 H        -0.285663        -1.278617         0.114136
 H        -0.807995         0.306490         0.462243
 H         1.892374         0.082369         2.373397
 H         1.872205        -1.504721         1.771529
 H         4.177697         0.336001         1.702104
 H         4.158010        -1.316752         1.172492
 H         4.507928         1.947230        -1.092371
 H         3.719698         0.874995        -2.440938
 H         2.150487         2.112660         0.836801
