19
Iteration:  2367
 C        -0.035610        -0.239289        -0.216431
 C         1.345497         0.123596         0.167861
 C         2.010840        -0.540558         1.371580
 C         3.563971        -0.332621         0.995476
 C         3.300284         0.477930        -0.205148
 C         3.715523         1.265865        -1.504520
 O         2.454987         2.075662        -1.247615
 C         2.127320         1.428884         0.014077
 O         2.309223        -0.475128        -0.857593
 H         0.049444        -0.611823        -1.279543
 H        -0.216034        -1.048353         0.576238
 H        -0.844688         0.413460        -0.053797
 H         1.731946        -0.246681         2.458823
 H         1.820987        -1.677619         1.415041
 H         4.256144         0.060150         1.832704
 H         3.883524        -1.335100         0.841483
 H         4.574978         1.979639        -1.548691
 H         3.649191         0.616014        -2.419424
 H         2.079325         2.155408         0.883177
