19
Iteration:   840
 C        -0.043577        -0.309508        -0.193843
 C         1.359284         0.164703         0.161027
 C         2.082095        -0.616356         1.349127
 C         3.618161        -0.440983         0.956053
 C         3.307336         0.459742        -0.244131
 C         3.733227         1.387941        -1.367567
 O         2.378434         2.095917        -1.239908
 C         2.161700         1.489601         0.046590
 O         2.229340        -0.472688        -0.904487
 H        -0.458209        -1.181593         0.365722
 H        -0.808708         0.520503        -0.019576
 H         0.056545        -0.481867        -1.282154
 H         1.863967        -0.125368         2.255352
 H         1.856142        -1.748056         1.268932
 H         4.253598        -0.009457         1.710303
 H         3.901681        -1.486475         0.630041
 H         4.685137         2.081427        -1.175027
 H         3.742508         0.654435        -2.245539
 H         2.106471         2.301229         0.814718
