19
Iteration:  2695charge 0 multiplicity 1
 C        -0.095182        -0.225337        -0.179085
 C         1.368563         0.041867         0.107267
 C         2.099474        -0.537273         1.408760
 C         3.599651        -0.371588         1.033225
 C         3.285808         0.457492        -0.211041
 C         3.783212         1.355481        -1.356977
 O         2.416267         1.987808        -1.384109
 C         2.127207         1.472578        -0.011705
 O         2.260725        -0.437235        -0.913722
 H        -0.599073         0.510581        -0.776254
 H        -0.334311        -1.254091        -0.429239
 H        -0.682451        -0.293049         0.787974
 H         1.671173        -0.013549         2.279545
 H         1.937652        -1.633592         1.690234
 H         4.139080         0.150303         1.873207
 H         3.950778        -1.358456         0.938027
 H         4.587403         1.990860        -1.210987
 H         3.881057         0.657622        -2.200926
 H         2.138865         2.229375         0.815471
