19
Iteration:  3714
 C        -0.132506        -0.078532        -0.132359
 C         1.349333         0.083050         0.120798
 C         1.851954         0.071596         1.596070
 C         3.414480         0.251100         1.282164
 C         3.311756         0.313935        -0.232177
 C         3.983685         0.947552        -1.461859
 O         2.499393         1.543023        -1.796038
 C         2.157835         1.349722        -0.468090
 O         2.350914        -0.808671        -0.459528
 H        -0.347898        -0.270936        -1.223249
 H        -0.501325        -0.811428         0.551523
 H        -0.424670         0.925084         0.257641
 H         1.515802         0.916420         2.246106
 H         1.621340        -0.806055         2.045877
 H         3.811422         1.215601         1.699480
 H         4.011002        -0.658429         1.559869
 H         4.615240         1.785688        -0.949045
 H         4.535305         0.450632        -2.222414
 H         1.869735         2.315674         0.153917
