19
Iteration:  3167charge 0 multiplicity 1
 C        -0.125705        -0.146468         0.015841
 C         1.374803         0.062783         0.088810
 C         1.934491        -0.200513         1.503155
 C         3.514234        -0.064177         1.167810
 C         3.256285         0.416222        -0.274619
 C         3.874519         1.183384        -1.365355
 O         2.516782         1.811718        -1.532189
 C         2.128859         1.343822        -0.237650
 O         2.330997        -0.730148        -0.829705
 H        -0.249346        -0.943515        -0.834092
 H        -0.699556        -0.585619         0.865523
 H        -0.663146         0.737345        -0.408036
 H         1.650560         0.810765         2.019191
 H         1.373616        -1.038981         1.772210
 H         4.075474         0.675152         1.823667
 H         4.147274        -1.035442         1.046625
 H         4.372645         1.992777        -0.958019
 H         4.382968         0.816615        -2.185934
 H         2.105965         2.213279         0.361248
