19
Iteration:  1692charge 0 multiplicity 1
 C        -0.054243        -0.246461        -0.235517
 C         1.364353         0.050651         0.208663
 C         2.082591        -0.529805         1.379202
 C         3.616217        -0.386924         0.951720
 C         3.232510         0.412342        -0.277105
 C         3.725786         1.331513        -1.419887
 O         2.418170         2.097582        -1.235300
 C         2.127566         1.452279         0.048814
 O         2.258957        -0.485893        -0.876507
 H         0.089869        -1.224293        -0.724145
 H        -0.764855        -0.348071         0.558736
 H        -0.311385         0.399562        -1.049336
 H         2.087863         0.027541         2.404965
 H         1.666425        -1.556748         1.499348
 H         4.229391         0.257647         1.649628
 H         4.189966        -1.340900         0.917836
 H         4.609223         2.052617        -1.302266
 H         3.813609         0.852167        -2.395874
 H         1.959163         2.202661         0.858666
