19
Iteration:  4274
 C        -0.067585        -0.045163        -0.068552
 C         1.344265         0.132709         0.123985
 C         1.899790         0.242133         1.557065
 C         3.366119         0.292823         1.317178
 C         3.272101         0.383021        -0.205580
 C         3.964868         0.924681        -1.374512
 O         2.589510         1.418632        -1.884100
 C         2.086044         1.246663        -0.535871
 O         2.362511        -0.867647        -0.431283
 H        -0.425168        -0.996364        -0.452879
 H        -0.721174        -0.062826         0.891470
 H        -0.508711         0.630265        -0.791917
 H         1.632275         1.218054         2.088060
 H         1.469251        -0.620681         2.165207
 H         3.862624         1.210667         1.759994
 H         3.730856        -0.713645         1.562384
 H         4.567710         1.882671        -1.248655
 H         4.475846         0.303694        -2.155499
 H         1.853164         2.279770        -0.049773
