19
Iteration:  1856
 C        -0.059366        -0.133368        -0.207412
 C         1.346855         0.045259         0.112130
 C         2.145073        -0.468575         1.365607
 C         3.596343        -0.328786         0.964305
 C         3.213394         0.439887        -0.336330
 C         3.744820         1.396977        -1.272125
 O         2.397637         1.974221        -1.213295
 C         2.146207         1.329815        -0.007554
 O         2.282849        -0.540799        -0.910935
 H        -0.290229        -1.118953        -0.751840
 H        -0.772724        -0.225955         0.661358
 H        -0.484021         0.507071        -0.968497
 H         1.877905         0.067625         2.336059
 H         1.876609        -1.569482         1.564617
 H         4.151607         0.258088         1.686442
 H         4.145598        -1.191574         0.860978
 H         4.555912         2.006382        -0.924955
 H         3.983998         0.978244        -2.251669
 H         2.011961         2.085651         0.846402
