19
Iteration:   497
 C        -0.137167        -0.188390        -0.182854
 C         1.386708         0.060710         0.057685
 C         2.152839        -0.630361         1.347679
 C         3.646626        -0.367199         1.045533
 C         3.314425         0.428204        -0.220308
 C         3.733811         1.397737        -1.280737
 O         2.382911         1.981139        -1.272199
 C         2.164736         1.445591         0.049796
 O         2.200955        -0.411958        -1.001092
 H        -0.232549        -1.323724        -0.426862
 H        -0.632844         0.067336         0.828029
 H        -0.567970         0.415409        -1.049226
 H         1.667563        -0.167898         2.238171
 H         1.991825        -1.702304         1.451398
 H         4.183163         0.140231         1.822293
 H         4.137235        -1.320671         0.673694
 H         4.528114         2.072123        -1.082051
 H         3.877828         0.866919        -2.205250
 H         2.104929         2.202381         0.813341
