19
Iteration:  1063
 C        -0.113288        -0.267343        -0.127725
 C         1.332581         0.067681         0.111383
 C         2.047895        -0.704856         1.299273
 C         3.584358        -0.348548         0.955617
 C         3.279334         0.472003        -0.247383
 C         3.770251         1.381478        -1.313379
 O         2.421350         1.995218        -1.282612
 C         2.166693         1.475247         0.057755
 O         2.304760        -0.382455        -0.939579
 H        -0.487144        -1.290087         0.134781
 H        -0.580214         0.434736         0.616220
 H        -0.520055         0.031944        -1.126639
 H         1.640465        -0.248601         2.217246
 H         1.808883        -1.712285         1.318693
 H         4.104682         0.177797         1.815759
 H         4.186156        -1.274341         0.748003
 H         4.665766         1.984514        -0.964123
 H         3.919556         1.040524        -2.355928
 H         2.374881         2.255481         0.816622
