19
Iteration:  4314
 C        -0.034268        -0.274910        -0.157707
 C         1.338682         0.289243         0.143012
 C         1.898721         0.241385         1.660301
 C         3.404869         0.228481         1.415949
 C         3.254139         0.390456        -0.142397
 C         3.894891         0.744753        -1.519883
 O         2.596758         1.426724        -1.862158
 C         2.157591         1.392048        -0.482882
 O         2.253753        -0.624481        -0.495496
 H         0.203901        -1.315034        -0.346679
 H        -0.810770        -0.183112         0.645178
 H        -0.440935         0.129364        -1.095449
 H         1.553660         1.058156         2.260097
 H         1.611428        -0.672432         2.039040
 H         3.812531         1.080161         1.955722
 H         3.927081        -0.756552         1.647344
 H         4.830477         1.434518        -1.599673
 H         4.062507        -0.124295        -2.165669
 H         2.213938         2.463577        -0.124059
