19
Iteration:  3107charge 0 multiplicity 1
 C        -0.010046        -0.161942        -0.217531
 C         1.390162         0.132085         0.157882
 C         2.027917        -0.284424         1.496984
 C         3.501356        -0.077761         1.135666
 C         3.272811         0.353125        -0.215376
 C         3.750629         1.077253        -1.468760
 O         2.420650         1.831811        -1.510810
 C         2.142379         1.426233        -0.075397
 O         2.314145        -0.569177        -0.737881
 H        -0.568028        -0.939140         0.321833
 H        -0.616337         0.812356        -0.212078
 H        -0.000318        -0.481143        -1.301646
 H         1.575948         0.042184         2.355871
 H         1.669370        -1.377010         1.511491
 H         3.948348         0.703083         1.769270
 H         4.066070        -0.957826         1.220691
 H         4.576980         1.887090        -1.308829
 H         4.044962         0.331669        -2.305659
 H         2.190114         2.301868         0.661730
