19
Iteration:  3927
 C        -0.075857        -0.217063        -0.222871
 C         1.327494         0.191447         0.187319
 C         1.845635         0.374651         1.634819
 C         3.407303         0.268445         1.354241
 C         3.255145         0.269408        -0.178821
 C         3.892740         0.858696        -1.572859
 O         2.582375         1.490177        -1.763772
 C         2.161500         1.387227        -0.483989
 O         2.390550        -0.864370        -0.455005
 H        -0.457991        -0.961648         0.412534
 H        -0.861318         0.547054         0.012635
 H        -0.197170        -0.499241        -1.257699
 H         1.556492         1.284030         2.055660
 H         1.526672        -0.523771         2.296770
 H         3.892149         1.184595         1.789093
 H         3.774833        -0.682826         1.760898
 H         4.701251         1.602362        -1.330522
 H         4.133608         0.064317        -2.405996
 H         2.151708         2.454000         0.043997
