19
Iteration:  1480
 C        -0.101232        -0.203578        -0.091647
 C         1.354871         0.078493         0.115673
 C         2.122183        -0.705700         1.416895
 C         3.567169        -0.427532         0.936725
 C         3.284950         0.465677        -0.236914
 C         3.769138         1.431109        -1.262728
 O         2.484110         2.012186        -1.432582
 C         2.072968         1.440188         0.030863
 O         2.280306        -0.414600        -0.919669
 H        -0.405833        -1.169830        -0.313221
 H        -0.664180        -0.043287         0.802292
 H        -0.723967         0.321892        -0.760589
 H         1.728329        -0.382733         2.423976
 H         1.774276        -1.779233         1.291197
 H         3.903648         0.214874         1.663081
 H         4.324255        -1.155027         0.727582
 H         4.508168         2.244374        -1.036010
 H         4.133535         1.044784        -2.283463
 H         1.900172         2.309068         0.704903
