19
Iteration:  3729charge 0 multiplicity 1
 C        -0.104665        -0.094003        -0.129454
 C         1.332091         0.087843         0.077884
 C         1.912524         0.149323         1.562308
 C         3.460165         0.261936         1.292892
 C         3.236385         0.376609        -0.184396
 C         3.847150         0.953268        -1.412303
 O         2.634228         1.530413        -1.798501
 C         2.088929         1.285276        -0.385144
 O         2.358508        -0.815968        -0.503619
 H        -0.378951         0.154382        -1.145254
 H        -0.485883        -1.152639        -0.025704
 H        -0.638354         0.660256         0.505860
 H         1.409260         0.982183         2.131640
 H         1.628679        -0.876026         2.081622
 H         3.950346         1.169944         1.704466
 H         4.053863        -0.613299         1.682968
 H         4.614564         1.648196        -1.445872
 H         4.084140         0.157641        -2.201161
 H         2.161204         2.272522         0.173078
