19
Iteration:   324
 C        -0.111840        -0.230126        -0.307412
 C         1.354832         0.029446         0.130851
 C         2.046079        -0.571833         1.400993
 C         3.609235        -0.352760         0.940548
 C         3.248915         0.369684        -0.294255
 C         3.705371         1.476150        -1.391307
 O         2.400891         2.142768        -1.151868
 C         2.228530         1.382180         0.028201
 O         2.288330        -0.536263        -0.842545
 H        -0.415825        -1.061721         0.284100
 H        -0.625971         0.679894        -0.014230
 H        -0.131150        -0.392699        -1.359035
 H         1.594902        -0.250898         2.326171
 H         1.945665        -1.664465         1.355940
 H         4.273052         0.210057         1.643901
 H         4.117452        -1.302906         0.627344
 H         4.630433         2.128549        -1.180603
 H         3.791918         0.909992        -2.361156
 H         2.359577         1.920518         0.998507
