19
Iteration:  1144
 C        -0.061635        -0.211086        -0.194519
 C         1.381129         0.037983         0.052584
 C         2.149449        -0.643923         1.399228
 C         3.569458        -0.340883         1.018936
 C         3.274262         0.381022        -0.263778
 C         3.688825         1.304124        -1.362259
 O         2.418365         2.105480        -1.256647
 C         2.141391         1.405460         0.072521
 O         2.247453        -0.393760        -0.944682
 H        -0.240819        -1.228391        -0.593264
 H        -0.663027        -0.117075         0.756823
 H        -0.453364         0.551989        -0.898723
 H         1.629261        -0.101418         2.193167
 H         1.908754        -1.775118         1.488959
 H         4.045713         0.455124         1.600843
 H         4.259242        -1.199011         0.840926
 H         4.513488         1.975271        -0.863644
 H         3.969481         0.904367        -2.386794
 H         2.206891         2.066724         0.904042
