19
Iteration:  2072
 C        -0.104649        -0.225556        -0.164610
 C         1.371598         0.081569         0.099987
 C         2.077580        -0.457692         1.443932
 C         3.600084        -0.352429         0.975539
 C         3.240169         0.353647        -0.293425
 C         3.775345         1.357366        -1.338316
 O         2.471039         2.065042        -1.268623
 C         2.029742         1.379652        -0.043503
 O         2.304725        -0.514188        -0.912758
 H        -0.347175        -1.175273        -0.677206
 H        -0.595111        -0.556707         0.757277
 H        -0.492550         0.662322        -0.605738
 H         1.727386         0.224921         2.268543
 H         1.880498        -1.523036         1.719944
 H         4.405952         0.267659         1.611649
 H         4.137362        -1.339807         0.742980
 H         4.676472         2.002326        -0.932962
 H         3.823497         1.024247        -2.422930
 H         2.037361         2.070074         0.777839
