19
Iteration:   898charge 0 multiplicity 1
 C        -0.075041        -0.154660        -0.038221
 C         1.390810         0.038975        -0.005429
 C         2.024769        -0.596200         1.292650
 C         3.596897        -0.338273         0.987675
 C         3.250378         0.359673        -0.381303
 C         3.709044         1.543049        -1.306474
 O         2.470619         2.170030        -1.256115
 C         2.111177         1.319573        -0.019163
 O         2.314906        -0.675243        -0.872106
 H        -0.376054        -1.243731        -0.223905
 H        -0.493874         0.188353         0.945174
 H        -0.658675         0.475620        -0.758503
 H         1.664676        -0.030619         2.217299
 H         1.770118        -1.599796         1.501531
 H         4.134211         0.269374         1.771174
 H         4.100788        -1.309727         0.944343
 H         4.589003         2.056528        -0.708658
 H         4.102621         1.379500        -2.310877
 H         2.049508         1.937209         0.803836
