19
Iteration:  2788charge 0 multiplicity 1
 C        -0.068761        -0.217664        -0.248409
 C         1.414557         0.090958         0.096132
 C         1.993479        -0.476360         1.453849
 C         3.635119        -0.348266         1.117530
 C         3.251778         0.402834        -0.231793
 C         3.724234         1.337993        -1.463070
 O         2.415012         1.999099        -1.338030
 C         2.149926         1.435116        -0.007406
 O         2.281044        -0.490633        -0.840033
 H        -0.689119         0.417481         0.461315
 H        -0.307469        -0.280630        -1.358923
 H        -0.089295        -1.275243         0.002594
 H         1.714704         0.095480         2.348886
 H         1.678601        -1.468347         1.667731
 H         4.242998         0.103722         1.885209
 H         4.022438        -1.378018         0.896378
 H         4.589507         2.068912        -1.456663
 H         3.652429         0.744838        -2.394277
 H         2.387854         2.252129         0.690837
