19
Iteration:   155charge 0 multiplicity 1
 C        -0.193590        -0.244959        -0.221478
 C         1.392668        -0.010431         0.007146
 C         2.180768        -0.627123         1.297264
 C         3.686725        -0.366782         0.932184
 C         3.240181         0.376590        -0.323748
 C         3.711533         1.469937        -1.314026
 O         2.429469         2.147936        -1.067393
 C         2.197349         1.307093         0.193130
 O         2.167988        -0.398208        -1.002870
 H        -0.077756        -0.455590        -1.249139
 H        -0.591435        -1.146100         0.293167
 H        -0.766828         0.699241        -0.005813
 H         1.647480        -0.258353         2.228051
 H         2.111407        -1.656805         1.308484
 H         4.300232         0.212517         1.684106
 H         4.179327        -1.279506         0.766893
 H         4.557075         2.100774        -0.919151
 H         3.660385         1.163647        -2.335500
 H         2.373915         1.887395         1.004879
