19
Iteration:    15charge 0 multiplicity 1
 C        -0.023866        -0.174232        -0.188155
 C         1.372616        -0.033335        -0.072338
 C         2.126240        -0.693870         1.291012
 C         3.617565        -0.452695         0.914595
 C         3.287048         0.405822        -0.332133
 C         3.708874         1.476384        -1.359363
 O         2.378880         2.277063        -0.896838
 C         2.155075         1.263934         0.182277
 O         2.213682        -0.467747        -1.124342
 H        -0.410070        -0.237233         0.798776
 H        -0.603747         0.595661        -0.764090
 H        -0.272993        -1.168967        -0.669536
 H         1.929217         0.167674         2.077710
 H         1.814850        -1.575257         1.765632
 H         4.101040         0.171786         1.784245
 H         4.253301        -1.269825         0.680762
 H         4.611028         2.088437        -1.014503
 H         3.621412         1.178035        -2.362518
 H         2.094770         1.709427         1.304017
