19
Iteration:  1415charge 0 multiplicity 1
 C        -0.105768        -0.185687        -0.229945
 C         1.384601         0.002804         0.087775
 C         2.115264        -0.525744         1.379234
 C         3.660181        -0.324993         1.038444
 C         3.305283         0.349446        -0.286621
 C         3.658851         1.350939        -1.346546
 O         2.410762         2.196621        -1.184959
 C         2.136412         1.347913         0.063478
 O         2.217429        -0.531869        -0.988424
 H        -0.494072        -1.166193        -0.035446
 H        -0.678010         0.650764         0.153733
 H        -0.063536        -0.089185        -1.313158
 H         1.931818        -0.241655         2.432042
 H         1.963366        -1.649514         1.418066
 H         4.274797         0.219248         1.761405
 H         4.114573        -1.329180         0.936262
 H         4.501557         2.083772        -1.174682
 H         3.883435         0.853670        -2.360140
 H         2.196613         1.969385         0.981962
