19
Iteration:  2998charge 0 multiplicity 1
 C        -0.115359        -0.136402        -0.033189
 C         1.364984         0.092682         0.113290
 C         2.036204        -0.464442         1.421719
 C         3.526379        -0.152621         1.178631
 C         3.284678         0.478419        -0.190516
 C         3.845143         1.218981        -1.380152
 O         2.489778         1.874052        -1.583587
 C         2.074526         1.420151        -0.172437
 O         2.300540        -0.593445        -0.826310
 H        -0.602266         0.812375        -0.318537
 H        -0.432489        -0.943308        -0.836685
 H        -0.442406        -0.593204         0.949497
 H         1.700696         0.042835         2.281490
 H         1.686475        -1.546630         1.301431
 H         3.828949         0.560307         1.990541
 H         4.214941        -0.964379         1.203444
 H         4.618250         1.829053        -1.015352
 H         4.184482         0.635066        -2.246562
 H         1.948044         2.298678         0.486149
