19
Iteration:  2174charge 0 multiplicity 1
 C        -0.074677        -0.069823        -0.062050
 C         1.386580        -0.017377         0.138816
 C         2.047328        -0.618659         1.339842
 C         3.602460        -0.341298         1.059234
 C         3.247276         0.368909        -0.281103
 C         3.742048         1.481612        -1.277215
 O         2.364158         1.985036        -1.367977
 C         2.168872         1.379797        -0.044377
 O         2.363154        -0.527615        -0.961054
 H        -0.574292        -0.945915         0.374156
 H        -0.585805         0.854485         0.287055
 H        -0.565433        -0.084362        -1.155422
 H         1.782498        -0.175995         2.236981
 H         1.720192        -1.661619         1.320375
 H         3.916413         0.365584         1.846190
 H         4.187023        -1.212872         0.871677
 H         4.420935         2.370191        -1.037463
 H         4.019378         0.967800        -2.243528
 H         2.152588         2.107183         0.776774
