19
Iteration:   341charge 0 multiplicity 1
 C        -0.112118        -0.140466        -0.200487
 C         1.377694         0.024322         0.068865
 C         2.094754        -0.524549         1.386183
 C         3.612836        -0.283431         0.958886
 C         3.286959         0.334757        -0.345981
 C         3.714531         1.453879        -1.292838
 O         2.417010         2.146282        -1.167609
 C         2.085179         1.339474         0.034174
 O         2.299675        -0.663120        -0.963916
 H        -0.354955        -1.262007        -0.165967
 H        -0.769010         0.549856         0.406618
 H        -0.152292         0.110228        -1.316372
 H         1.948106        -0.019297         2.373256
 H         1.738272        -1.593394         1.464108
 H         4.247982         0.180372         1.710368
 H         4.252487        -1.230801         0.964341
 H         4.490637         1.969096        -0.744958
 H         3.907599         1.248099        -2.335042
 H         2.048912         1.975573         0.935329
