19
Iteration:  2820charge 0 multiplicity 1
 C         0.019853        -0.145006        -0.267881
 C         1.415640         0.036204         0.100944
 C         2.026016        -0.426337         1.461062
 C         3.587316        -0.276754         1.113309
 C         3.255735         0.423626        -0.249164
 C         3.758472         1.285051        -1.430314
 O         2.357056         1.971343        -1.331626
 C         2.151888         1.406778        -0.026221
 O         2.271467        -0.536615        -0.843900
 H        -0.729277        -0.444227         0.574696
 H        -0.630901         0.646329        -0.676581
 H        -0.094966        -1.115367        -0.803138
 H         1.688072         0.205478         2.296651
 H         1.766507        -1.428775         1.662811
 H         4.207166         0.162307         1.851595
 H         3.924158        -1.278180         0.753574
 H         4.585923         1.955981        -1.278774
 H         3.815702         0.686137        -2.334386
 H         2.376794         2.120294         0.836277
