19
Iteration:  3823
 C        -0.118715        -0.060506        -0.093244
 C         1.340022         0.040449         0.132302
 C         1.861233         0.197926         1.537059
 C         3.419043         0.291671         1.354662
 C         3.238058         0.340694        -0.150173
 C         4.017580         0.900561        -1.446253
 O         2.527651         1.460957        -1.808082
 C         2.141166         1.328283        -0.491239
 O         2.367162        -0.800874        -0.533852
 H        -0.793376         0.555192         0.568831
 H        -0.376858         0.234858        -1.124063
 H        -0.620467        -1.028909         0.130712
 H         1.449229         1.121122         2.037982
 H         1.658848        -0.597342         2.153842
 H         4.011508         1.160862         1.687593
 H         3.903144        -0.636652         1.722592
 H         4.806993         1.771401        -1.209600
 H         4.471340         0.223442        -2.135929
 H         1.943723         2.237750         0.007548
