19
Iteration:  2311
 C        -0.174914        -0.073739        -0.127397
 C         1.373024        -0.003699         0.020753
 C         2.119265        -0.534846         1.394566
 C         3.644899        -0.282039         0.978449
 C         3.257029         0.320279        -0.326719
 C         3.751191         1.496675        -1.208848
 O         2.412282         2.023108        -1.329374
 C         2.063259         1.381955        -0.068986
 O         2.320432        -0.663962        -0.911507
 H        -0.569722        -0.785008        -0.952111
 H        -0.508217        -0.393614         0.906573
 H        -0.428951         0.973668        -0.305519
 H         1.957979         0.038594         2.361012
 H         1.945271        -1.632017         1.534839
 H         4.064363         0.399674         1.726801
 H         4.036202        -1.268505         1.027232
 H         4.414249         2.163483        -0.602079
 H         4.225528         1.227880        -2.159884
 H         2.277407         1.973381         0.858937
