19
Iteration:  4384charge 0 multiplicity 1
 C        -0.081573        -0.060222        -0.153460
 C         1.326611         0.111609         0.218222
 C         1.904914         0.189238         1.546763
 C         3.420489         0.329039         1.290729
 C         3.224614         0.295252        -0.223070
 C         3.909569         0.883010        -1.400500
 O         2.513217         1.406275        -1.845283
 C         2.170141         1.316074        -0.457159
 O         2.354896        -0.774691        -0.468297
 H        -0.705553        -0.491946         0.667494
 H        -0.372039         0.926608        -0.512328
 H        -0.046208        -0.747791        -1.033518
 H         1.522429         1.094803         2.026418
 H         1.694335        -0.733290         2.191848
 H         3.933741         1.315532         1.574915
 H         3.939019        -0.561106         1.626457
 H         4.487317         1.906690        -1.070087
 H         4.548817         0.317370        -2.162781
 H         2.157539         2.170273         0.338254
