19
Iteration:  1052charge 0 multiplicity 1
 C        -0.194622        -0.249960        -0.062701
 C         1.410141         0.078156         0.127836
 C         2.005988        -0.699056         1.305432
 C         3.576443        -0.409580         1.008037
 C         3.286264         0.412580        -0.266842
 C         3.753893         1.426797        -1.328725
 O         2.472961         2.097592        -1.386440
 C         2.173262         1.456083         0.109718
 O         2.293341        -0.454222        -0.917083
 H        -0.292588        -1.337595         0.219861
 H        -0.903631         0.470606         0.431604
 H        -0.289985        -0.157082        -1.189091
 H         1.651569        -0.624179         2.349817
 H         1.850576        -1.627330         0.906323
 H         4.100198         0.360984         1.666207
 H         4.333598        -1.175867         0.705683
 H         4.348795         2.317807        -0.921475
 H         4.151184         1.088603        -2.323590
 H         2.197966         2.320490         0.792906
