19
Iteration:  4320charge 0 multiplicity 1
 C         0.039887        -0.243798        -0.145118
 C         1.342423         0.268401         0.120064
 C         1.837909         0.233362         1.672999
 C         3.410545         0.218386         1.359503
 C         3.202304         0.407276        -0.143305
 C         3.861012         0.743155        -1.532275
 O         2.635365         1.446477        -1.876132
 C         2.178187         1.411971        -0.441838
 O         2.269298        -0.640344        -0.451047
 H         0.158535        -1.365639        -0.248734
 H        -0.728709        -0.175039         0.582971
 H        -0.376628         0.008441        -1.139378
 H         1.451754         1.076044         2.308598
 H         1.564860        -0.831609         2.114613
 H         3.732658         1.113344         1.909525
 H         3.929730        -0.689921         1.513856
 H         4.699478         1.364267        -1.763107
 H         3.942692        -0.182299        -2.126723
 H         2.234619         2.409708        -0.105385
