19
Iteration:  4037charge 0 multiplicity 1
 C        -0.129520        -0.242054        -0.257979
 C         1.362328         0.162657         0.139327
 C         1.843912         0.375806         1.659880
 C         3.478365         0.305038         1.357227
 C         3.234741         0.314266        -0.214649
 C         3.843956         0.824342        -1.549195
 O         2.612698         1.489191        -1.800178
 C         2.169297         1.369325        -0.423478
 O         2.317321        -0.862833        -0.363591
 H        -0.067095        -1.247135        -0.663133
 H        -0.866186        -0.054930         0.505628
 H        -0.318427         0.281758        -1.171725
 H         1.618254         1.295271         2.044243
 H         1.543486        -0.395597         2.431989
 H         3.893384         1.330427         1.647182
 H         4.125585        -0.504029         1.654914
 H         4.769588         1.510256        -1.463730
 H         4.202759         0.133522        -2.467067
 H         2.129613         2.389823         0.065797
