19
Iteration:  4309charge 0 multiplicity 1
 C        -0.117606        -0.293992        -0.168232
 C         1.311953         0.288229         0.171723
 C         1.937863         0.248671         1.622408
 C         3.408555         0.240103         1.442342
 C         3.331428         0.385265        -0.153236
 C         3.922151         0.749582        -1.510536
 O         2.574051         1.402171        -1.855045
 C         2.158826         1.424186        -0.501802
 O         2.256668        -0.631497        -0.525776
 H         0.151843        -1.355352        -0.399636
 H        -0.788705        -0.156238         0.662743
 H        -0.497097         0.259471        -1.047363
 H         1.613885         1.099262         2.284429
 H         1.486031        -0.728531         2.114481
 H         4.064958         1.015821         1.909406
 H         3.852123        -0.657500         1.807937
 H         4.709472         1.442599        -1.330431
 H         4.168841        -0.071737        -2.193530
 H         2.057314         2.403162        -0.060900
