19
Iteration:  3707
 C        -0.132877        -0.061267        -0.111381
 C         1.312121         0.128277         0.149148
 C         1.878414         0.075392         1.586819
 C         3.400864         0.227355         1.307671
 C         3.312309         0.325089        -0.234295
 C         3.954122         0.946895        -1.432100
 O         2.515939         1.533709        -1.840805
 C         2.193410         1.330466        -0.417851
 O         2.374289        -0.817100        -0.501227
 H        -0.341752        -0.522947        -1.064034
 H        -0.541984        -0.822113         0.611530
 H        -0.565477         0.995251        -0.078287
 H         1.478469         0.890277         2.298111
 H         1.558842        -0.977856         2.063747
 H         3.829470         1.136523         1.797378
 H         4.018606        -0.636937         1.721120
 H         4.413153         1.817757        -1.115322
 H         4.549627         0.689731        -2.365788
 H         1.889884         2.371624        -0.085754
