19
Iteration:  4929
 C        -0.171032        -0.190686        -0.124177
 C         1.312375         0.115506         0.146071
 C         1.976861         0.236717         1.613255
 C         3.488518         0.304836         1.272616
 C         3.248180         0.303782        -0.174613
 C         3.887977         0.910906        -1.398025
 O         2.656932         1.496628        -1.779170
 C         2.115570         1.322895        -0.488777
 O         2.277585        -0.824880        -0.556111
 H        -0.703833        -0.828415         0.680054
 H        -0.604678         0.791944         0.021226
 H        -0.283897        -0.555068        -1.148117
 H         1.597492         1.217226         2.059439
 H         1.512438        -0.521362         2.366480
 H         3.886315         1.319149         1.562826
 H         4.188042        -0.471705         1.537853
 H         4.473142         1.743632        -1.263838
 H         4.212235         0.192598        -2.136707
 H         2.022499         2.387086         0.016120
