19
Iteration:  2838charge 0 multiplicity 1
 C        -0.167222        -0.151966        -0.185637
 C         1.375551         0.057904         0.072738
 C         2.074685        -0.418067         1.459867
 C         3.623899        -0.236117         1.050541
 C         3.302020         0.353795        -0.303858
 C         3.719811         1.285739        -1.321490
 O         2.466001         1.958506        -1.357924
 C         2.095071         1.358935        -0.023900
 O         2.332507        -0.571646        -0.893712
 H        -0.817821        -0.486154         0.666616
 H        -0.561955         0.858779        -0.340320
 H        -0.267460        -0.715098        -1.170188
 H         1.907925         0.155311         2.405753
 H         1.775359        -1.472389         1.743074
 H         3.997695         0.600963         1.757663
 H         4.223631        -1.164009         1.166305
 H         4.478473         2.016392        -0.965587
 H         3.915995         0.875672        -2.325029
 H         1.836309         2.235942         0.598143
