19
Iteration:  4438charge 0 multiplicity 1
 C        -0.057523        -0.172935        -0.065454
 C         1.379020         0.222174         0.125905
 C         1.805712         0.169368         1.605722
 C         3.379859         0.209839         1.286097
 C         3.257155         0.431241        -0.136076
 C         3.835103         0.780339        -1.452947
 O         2.606121         1.415766        -1.871796
 C         2.139412         1.427776        -0.437887
 O         2.433973        -0.672861        -0.542913
 H        -0.596593        -0.494161         0.842402
 H        -0.842052         0.561244        -0.325340
 H        -0.076143        -1.099844        -0.705930
 H         1.599106         0.988728         2.218245
 H         1.592654        -0.804049         2.035750
 H         3.832523         1.200141         1.763936
 H         3.853528        -0.754311         1.492502
 H         4.723203         1.493687        -1.440785
 H         4.108106        -0.121923        -2.043764
 H         1.856065         2.415278         0.177622
