19
Iteration:  1688charge 0 multiplicity 1
 C        -0.044557        -0.255471        -0.246018
 C         1.386130         0.104613         0.187670
 C         2.071094        -0.533028         1.422124
 C         3.661467        -0.367767         0.948113
 C         3.209462         0.394442        -0.291220
 C         3.715760         1.367885        -1.414676
 O         2.430577         2.099157        -1.198769
 C         2.143721         1.420751         0.036205
 O         2.238165        -0.531204        -0.874018
 H         0.102562        -1.212276        -0.730494
 H        -0.829440        -0.309180         0.511547
 H        -0.480055         0.367285        -1.072734
 H         1.962568         0.037518         2.326143
 H         1.694231        -1.543225         1.456105
 H         4.165348         0.306083         1.568119
 H         4.125624        -1.291893         0.820142
 H         4.561687         1.981869        -1.274201
 H         3.814544         0.846996        -2.366695
 H         2.009779         2.263298         0.723421
