19
Iteration:  1065
 C        -0.098307        -0.256488        -0.134458
 C         1.329636         0.056515         0.104620
 C         2.055606        -0.692875         1.296254
 C         3.589786        -0.340812         0.957964
 C         3.270752         0.472223        -0.245222
 C         3.771426         1.387287        -1.314639
 O         2.414748         1.987999        -1.266414
 C         2.172149         1.471336         0.040901
 O         2.299654        -0.374270        -0.942302
 H        -0.478675        -1.267462         0.122351
 H        -0.599990         0.405934         0.658572
 H        -0.525274         0.031722        -1.118165
 H         1.703129        -0.225258         2.226138
 H         1.797932        -1.763182         1.380632
 H         4.065080         0.159141         1.830254
 H         4.126873        -1.328984         0.756432
 H         4.704846         1.971989        -0.962289
 H         3.927056         0.959109        -2.365268
 H         2.301070         2.184838         0.836981
