19
Iteration:  3923charge 0 multiplicity 1
 C        -0.062268        -0.204898        -0.231740
 C         1.268919         0.202168         0.174404
 C         1.850360         0.358632         1.671162
 C         3.393458         0.231390         1.329363
 C         3.288325         0.281232        -0.175025
 C         3.836748         0.870976        -1.587897
 O         2.611240         1.481461        -1.762653
 C         2.187558         1.394458        -0.483911
 O         2.414277        -0.839071        -0.431324
 H        -0.441279        -0.974459         0.518660
 H        -0.871335         0.536397        -0.060686
 H        -0.150237        -0.705821        -1.240348
 H         1.413038         1.337946         2.064865
 H         1.507291        -0.418656         2.253128
 H         3.869568         1.134098         1.746361
 H         3.801859        -0.751085         1.769701
 H         4.754915         1.576696        -1.427047
 H         4.012193         0.110743        -2.366111
 H         2.095440         2.346117        -0.018839
