19
Iteration:    18
 C        -0.027094        -0.173946        -0.199505
 C         1.380196        -0.050248        -0.067667
 C         2.133521        -0.658760         1.306817
 C         3.619218        -0.442727         0.920361
 C         3.298748         0.399246        -0.342466
 C         3.700303         1.468840        -1.350675
 O         2.390156         2.289624        -0.869611
 C         2.147231         1.271471         0.179080
 O         2.219988        -0.481556        -1.148991
 H        -0.472794        -0.344086         0.836890
 H        -0.637075         0.593467        -0.694913
 H        -0.327094        -1.098611        -0.724081
 H         1.868521         0.129562         2.042269
 H         1.746409        -1.605094         1.831200
 H         4.088948         0.181120         1.688365
 H         4.280123        -1.349291         0.739958
 H         4.564505         2.080918        -1.066004
 H         3.526549         1.148836        -2.423789
 H         2.119516         1.682164         1.209928
