19
Iteration:  3406
 C        -0.129851        -0.053093        -0.124538
 C         1.334050         0.045697         0.125971
 C         1.962788        -0.073769         1.545520
 C         3.504694         0.169741         1.287868
 C         3.330801         0.310439        -0.214678
 C         3.871620         1.130149        -1.437211
 O         2.469721         1.585229        -1.709634
 C         2.151043         1.286728        -0.286031
 O         2.328677        -0.713864        -0.670775
 H        -0.450532        -0.931235        -0.732073
 H        -0.861624        -0.015588         0.684658
 H        -0.426951         0.729900        -0.733677
 H         1.547607         0.619369         2.348319
 H         1.598331        -1.101584         1.799513
 H         3.784000         1.031787         1.887478
 H         4.168902        -0.729045         1.397081
 H         4.590679         1.918308        -1.006918
 H         4.354187         0.676515        -2.267544
 H         2.169465         2.149058         0.432472
