19
Iteration:  1160
 C        -0.139036        -0.204290        -0.094622
 C         1.343728         0.016018         0.146541
 C         2.031261        -0.652457         1.295171
 C         3.599144        -0.333683         1.018115
 C         3.266662         0.494657        -0.249695
 C         3.865155         1.362283        -1.342868
 O         2.400856         2.011138        -1.263142
 C         2.129952         1.398503         0.048340
 O         2.322587        -0.381552        -1.011961
 H        -0.331138        -1.258611        -0.281447
 H        -0.733401         0.017574         0.765459
 H        -0.501079         0.312260        -0.970579
 H         1.960784        -0.374371         2.375515
 H         1.810420        -1.673454         1.250487
 H         4.000954         0.214809         1.884660
 H         4.197927        -1.234749         0.784310
 H         4.668764         2.089045        -1.400309
 H         3.759181         0.755499        -2.207568
 H         1.976795         2.220656         0.841856
