19
Iteration:  2906charge 0 multiplicity 1
 C        -0.191168        -0.273121        -0.147571
 C         1.363432         0.070170         0.090446
 C         2.005433        -0.364491         1.481404
 C         3.554350        -0.235580         1.093311
 C         3.362009         0.462946        -0.185273
 C         3.794196         1.279158        -1.393264
 O         2.491715         1.894186        -1.447103
 C         2.140295         1.421123        -0.057968
 O         2.275085        -0.495666        -0.908089
 H        -0.138178        -1.297956        -0.592640
 H        -0.567756        -0.451877         0.876799
 H        -0.542903         0.616887        -0.708904
 H         1.643047         0.158798         2.401378
 H         1.661411        -1.364595         1.614013
 H         4.143793         0.291029         1.834631
 H         4.063261        -1.230685         0.854848
 H         4.660760         1.926215        -1.270932
 H         3.941143         0.575994        -2.212443
 H         2.070521         2.185965         0.800731
