19
Iteration:  1827charge 0 multiplicity 1
 C        -0.013188        -0.290031        -0.224121
 C         1.359830         0.020421         0.130234
 C         2.076756        -0.541873         1.451432
 C         3.598609        -0.520694         1.076521
 C         3.308265         0.483164        -0.289880
 C         3.639381         1.429060        -1.480722
 O         2.406299         2.041658        -1.265833
 C         2.186329         1.472718         0.031547
 O         2.285907        -0.387872        -0.867912
 H        -0.190555        -1.326314        -0.424159
 H        -0.648465         0.301716         0.467939
 H        -0.239443         0.137610        -1.213399
 H         1.630707         0.060148         2.294744
 H         1.655431        -1.593988         1.465850
 H         4.150771        -0.072167         1.954299
 H         3.932468        -1.638912         0.776508
 H         4.603157         2.007255        -1.275742
 H         3.726199         0.859953        -2.465110
 H         1.980362         2.286032         0.718704
