19
Iteration:  3834
 C        -0.121302        -0.045995        -0.094779
 C         1.350709         0.138528         0.072812
 C         1.834120         0.177351         1.591490
 C         3.409424         0.290983         1.335250
 C         3.278942         0.302749        -0.230371
 C         3.928598         0.900901        -1.408684
 O         2.599328         1.457009        -1.885722
 C         2.108048         1.236307        -0.422108
 O         2.385153        -0.793420        -0.482927
 H        -0.439673         0.471544         0.878946
 H        -0.558085         0.529312        -0.903014
 H        -0.354705        -1.133282        -0.162982
 H         1.462941         1.063489         2.186908
 H         1.540233        -0.717312         2.036438
 H         3.659852         1.301096         1.679550
 H         4.067759        -0.470081         1.803784
 H         4.557744         1.854221        -1.073364
 H         4.359572         0.368800        -2.219923
 H         2.044087         2.174150         0.031299
