19
Iteration:  3466charge 0 multiplicity 1
 C        -0.136226        -0.301915        -0.125065
 C         1.383992         0.168445         0.133974
 C         1.878709        -0.013467         1.617660
 C         3.407518         0.064131         1.222343
 C         3.318182         0.380955        -0.181165
 C         3.834327         0.980849        -1.508745
 O         2.570496         1.656633        -1.669174
 C         2.179056         1.464567        -0.298521
 O         2.332974        -0.648452        -0.655044
 H        -0.105806        -0.465608        -1.201734
 H        -0.340209        -1.215235         0.455463
 H        -0.776888         0.631988         0.140198
 H         1.685719         0.776307         2.294332
 H         1.582565        -0.925667         2.119889
 H         3.908738         0.842604         1.857738
 H         4.081539        -0.791181         1.364998
 H         4.740839         1.633498        -1.518728
 H         3.882087         0.107948        -2.306526
 H         2.049285         2.442935         0.145698
