19
Iteration:  3909charge 0 multiplicity 1
 C        -0.108603        -0.255984        -0.203523
 C         1.375696         0.207728         0.095089
 C         1.808421         0.293581         1.613992
 C         3.413640         0.211924         1.366481
 C         3.325487         0.390982        -0.172515
 C         3.855045         0.766527        -1.560052
 O         2.580028         1.534633        -1.875056
 C         2.175091         1.328268        -0.361026
 O         2.352749        -0.702601        -0.372538
 H        -0.499020        -0.921673         0.638818
 H        -0.716820         0.575209        -0.504864
 H         0.045919        -0.806790        -1.142380
 H         1.680460         1.295552         2.151660
 H         1.416988        -0.527978         2.265820
 H         4.031853         0.931753         1.861870
 H         3.812647        -0.755558         1.568298
 H         4.650504         1.462307        -1.665612
 H         3.979877        -0.074307        -2.157588
 H         2.087881         2.278403         0.096567
