19
Iteration:  4636charge 0 multiplicity 1
 C        -0.151372        -0.231479        -0.091756
 C         1.356357         0.220106         0.141425
 C         1.864054         0.212260         1.579556
 C         3.454495         0.226436         1.339308
 C         3.240579         0.457968        -0.148357
 C         3.900142         0.699681        -1.507464
 O         2.583842         1.467908        -1.854724
 C         2.184169         1.418621        -0.480914
 O         2.356269        -0.657612        -0.445420
 H         0.102787        -1.338478        -0.388736
 H        -0.924602        -0.174882         0.687008
 H        -0.606097         0.204838        -1.039976
 H         1.617818         1.102916         2.103109
 H         1.370119        -0.616300         2.185465
 H         4.028872         0.995833         1.999660
 H         3.931454        -0.755056         1.588150
 H         4.763216         1.356987        -1.573798
 H         3.985074        -0.183070        -2.145021
 H         2.061765         2.487414        -0.104866
