19
Iteration:   476
 C        -0.062311        -0.140646        -0.143322
 C         1.350912        -0.004787         0.138527
 C         2.027668        -0.573524         1.396011
 C         3.553606        -0.357398         0.932414
 C         3.285435         0.376560        -0.330969
 C         3.725759         1.490082        -1.417449
 O         2.400825         2.145140        -1.217742
 C         2.158484         1.290792         0.011588
 O         2.373111        -0.562625        -0.859605
 H        -0.239052        -1.072050        -0.852273
 H        -0.795888        -0.288313         0.720507
 H        -0.427509         0.662169        -0.832363
 H         1.816726        -0.036999         2.354608
 H         1.562255        -1.524027         1.507832
 H         4.074101         0.253045         1.635391
 H         4.073041        -1.326552         0.732725
 H         4.520118         2.039213        -0.970264
 H         4.007743         1.142064        -2.396988
 H         2.099131         1.966711         0.794712
