19
Iteration:  1254
 C        -0.005305        -0.210621        -0.266293
 C         1.408341         0.029052         0.203994
 C         2.040280        -0.599721         1.419406
 C         3.551305        -0.373720         0.965258
 C         3.272232         0.403171        -0.275041
 C         3.650750         1.412873        -1.437861
 O         2.461726         2.156552        -1.221256
 C         2.127694         1.373226         0.079007
 O         2.301242        -0.498013        -0.888015
 H        -0.295600        -1.308327        -0.170927
 H        -0.726079         0.298459         0.432374
 H        -0.146425         0.150430        -1.340618
 H         1.615221        -0.171633         2.340255
 H         1.851319        -1.684486         1.343863
 H         4.250309         0.061669         1.746250
 H         3.995560        -1.252607         0.436732
 H         4.529219         2.094211        -1.294638
 H         3.620832         0.921481        -2.386930
 H         2.101956         2.057179         0.882731
