19
Iteration:   344charge 0 multiplicity 1
 C        -0.113011        -0.142047        -0.190833
 C         1.387028         0.001832         0.056001
 C         2.102176        -0.527458         1.378975
 C         3.621008        -0.300801         0.968696
 C         3.275337         0.311094        -0.347605
 C         3.721268         1.465913        -1.291260
 O         2.414613         2.132465        -1.166822
 C         2.077779         1.365087         0.023818
 O         2.294647        -0.644959        -0.964441
 H        -0.362581        -1.242022        -0.201077
 H        -0.709849         0.531762         0.471696
 H        -0.144842         0.212545        -1.238643
 H         1.973787         0.053084         2.287884
 H         1.718408        -1.574464         1.536306
 H         4.107615         0.279828         1.748044
 H         4.301077        -1.206756         0.965332
 H         4.551047         1.965653        -0.712922
 H         3.947970         1.253791        -2.335154
 H         1.952969         1.947196         0.897253
