19
Iteration:  3296charge 0 multiplicity 1
 C        -0.188298        -0.107018        -0.097855
 C         1.297931         0.053086         0.095516
 C         2.001645        -0.136991         1.552493
 C         3.515347         0.003837         1.201583
 C         3.271594         0.341710        -0.205229
 C         3.859108         1.159738        -1.350757
 O         2.547087         1.750542        -1.680117
 C         2.138257         1.277110        -0.364225
 O         2.332700        -0.691897        -0.669651
 H        -0.652067         0.287383         0.851764
 H        -0.562473         0.457398        -0.953321
 H        -0.343460        -1.191141        -0.159417
 H         1.809072         0.663229         2.263445
 H         1.829046        -1.112027         2.028078
 H         3.909524         0.785709         1.848261
 H         4.096703        -0.923535         1.395252
 H         4.369705         2.144657        -1.095161
 H         4.272132         0.729220        -2.310197
 H         1.997822         2.208055         0.233223
