19
Iteration:  3964
 C        -0.183434        -0.133136        -0.098156
 C         1.297699         0.211062         0.125977
 C         1.882095         0.171965         1.603184
 C         3.425587         0.370669         1.382725
 C         3.252008         0.388211        -0.213237
 C         3.970999         0.828338        -1.428827
 O         2.631683         1.324396        -1.861477
 C         2.083481         1.396251        -0.509274
 O         2.394348        -0.787415        -0.481498
 H        -0.362136        -1.254329        -0.260656
 H        -0.706190         0.319713         0.721972
 H        -0.497110         0.320217        -1.067726
 H         1.546809         0.979717         2.407897
 H         1.590648        -0.808995         2.034321
 H         3.865812         1.267419         1.746460
 H         4.033009        -0.453977         1.718648
 H         4.615257         1.663216        -1.387328
 H         4.396206         0.213324        -2.139093
 H         1.914094         2.434411        -0.148187
