19
Iteration:   860
 C        -0.070779        -0.230053        -0.190395
 C         1.314808         0.005516         0.060431
 C         2.149592        -0.566846         1.449244
 C         3.621773        -0.398982         0.953476
 C         3.231642         0.382481        -0.287650
 C         3.704578         1.368513        -1.339545
 O         2.472799         2.026598        -1.258276
 C         2.057168         1.370830         0.090221
 O         2.263340        -0.328567        -0.974720
 H        -0.266065        -1.138150         0.323168
 H        -0.638078         0.533553         0.330243
 H        -0.177362        -0.317340        -1.259559
 H         1.900022         0.108867         2.258099
 H         1.819008        -1.618860         1.700889
 H         4.172819         0.318480         1.534605
 H         4.207714        -1.286803         0.687403
 H         4.506317         1.931517        -0.800055
 H         3.967174         1.163319        -2.419241
 H         2.165774         2.069918         1.033707
