19
Iteration:  4326charge 0 multiplicity 1
 C         0.042402        -0.256624        -0.166588
 C         1.338918         0.241618         0.143157
 C         1.769490         0.183382         1.660626
 C         3.384293         0.248891         1.289448
 C         3.250356         0.436080        -0.163508
 C         3.801160         0.706369        -1.547730
 O         2.661595         1.472578        -1.879522
 C         2.197029         1.477089        -0.421314
 O         2.307902        -0.689222        -0.403509
 H         0.117501        -1.323646        -0.070930
 H        -0.720037         0.072454         0.657498
 H        -0.284985        -0.003203        -1.165075
 H         1.434943         0.982325         2.308801
 H         1.420835        -0.668131         2.108339
 H         4.005277         1.071257         1.763072
 H         3.976541        -0.688087         1.578977
 H         4.758096         1.419451        -1.748155
 H         3.838902        -0.268001        -2.083249
 H         2.088769         2.517664         0.139384
