19
Iteration:  1751charge 0 multiplicity 1
 C        -0.097808        -0.150694        -0.076662
 C         1.356711        -0.090115         0.066729
 C         2.067470        -0.614335         1.365689
 C         3.596794        -0.255099         1.019282
 C         3.255415         0.355808        -0.358025
 C         3.727688         1.482178        -1.238290
 O         2.413194         2.085397        -1.325184
 C         2.178959         1.404057        -0.052757
 O         2.284513        -0.578202        -0.936879
 H        -0.468648        -1.183689         0.133947
 H        -0.473608         0.540028         0.756586
 H        -0.519653         0.248088        -1.054574
 H         1.761256        -0.160704         2.301899
 H         1.820539        -1.707281         1.443842
 H         4.228566         0.508632         1.580501
 H         4.161869        -1.310685         0.791035
 H         4.351561         2.165529        -0.579034
 H         4.192316         1.307522        -2.261194
 H         2.302204         1.999011         0.854618
