19
Iteration:   953charge 0 multiplicity 1
 C        -0.107667        -0.247974        -0.228120
 C         1.356432         0.137259         0.146893
 C         2.128299        -0.644016         1.400572
 C         3.638663        -0.403565         0.949081
 C         3.265944         0.473866        -0.261659
 C         3.702393         1.305994        -1.378349
 O         2.391005         2.021715        -1.223155
 C         2.173544         1.478003         0.041000
 O         2.262917        -0.411294        -0.910142
 H        -0.114717        -1.252284        -0.782878
 H        -0.799824        -0.248862         0.625342
 H        -0.345270         0.589227        -0.953798
 H         1.882089        -0.367607         2.457718
 H         1.872944        -1.651593         1.343868
 H         4.105737         0.306587         1.700271
 H         4.066054        -1.388140         0.877568
 H         4.560745         2.052453        -1.046711
 H         3.880731         0.846309        -2.356649
 H         2.080444         2.265904         0.732788
