19
Iteration:  2966
 C        -0.111750        -0.146291        -0.247560
 C         1.406824         0.053756         0.135982
 C         1.983106        -0.328863         1.479553
 C         3.548862        -0.163621         1.117704
 C         3.347519         0.381214        -0.312855
 C         3.781601         1.213060        -1.447668
 O         2.407665         1.925347        -1.408116
 C         2.165517         1.321063        -0.022101
 O         2.332473        -0.618604        -0.803536
 H        -0.505784         0.427497        -1.089940
 H        -0.625726        -1.155482        -0.221549
 H        -0.658991         0.328505         0.658970
 H         1.695674         0.374886         2.251593
 H         1.580138        -1.360174         1.807368
 H         3.873296         0.681723         1.797830
 H         4.279753        -0.928589         1.182896
 H         4.511097         1.965357        -1.243335
 H         3.945148         0.835586        -2.470043
 H         2.153938         2.053401         0.766647
