19
Iteration:  1191
 C        -0.063107        -0.160343        -0.062288
 C         1.368942         0.007792         0.072757
 C         2.056758        -0.618697         1.299180
 C         3.545829        -0.415103         1.033331
 C         3.277125         0.365326        -0.330207
 C         3.809027         1.463198        -1.228776
 O         2.348347         2.127342        -1.346480
 C         2.137239         1.409447        -0.020090
 O         2.332271        -0.533038        -0.946378
 H        -0.299281        -1.151422         0.272761
 H        -0.500022         0.471072         0.653099
 H        -0.524852         0.047225        -1.012524
 H         1.931310        -0.297660         2.423244
 H         1.684920        -1.629479         1.212976
 H         3.941831         0.146323         1.863529
 H         4.130053        -1.230917         0.776634
 H         4.532764         2.265737        -0.781525
 H         4.061885         1.188988        -2.232343
 H         2.113968         2.169289         0.828475
