19
Iteration:  1766
 C        -0.147333        -0.150421        -0.093745
 C         1.371956        -0.003145         0.078120
 C         2.113225        -0.599315         1.499603
 C         3.639296        -0.239183         0.963369
 C         3.249795         0.382775        -0.373596
 C         3.833914         1.497639        -1.272482
 O         2.454490         2.103948        -1.239220
 C         2.072765         1.249298        -0.035183
 O         2.215715        -0.609146        -1.059972
 H        -0.519748        -1.124305         0.295609
 H        -0.698395         0.551695         0.497583
 H        -0.248010         0.068189        -1.188866
 H         1.722058        -0.130414         2.388940
 H         1.988544        -1.664678         1.608063
 H         3.952702         0.498702         1.644581
 H         4.348847        -0.948000         1.073055
 H         4.577043         2.046840        -0.768810
 H         4.120419         1.215337        -2.247124
 H         1.972905         2.020099         0.775868
