19
Iteration:   607
 C        -0.066812        -0.221961        -0.189757
 C         1.377673         0.109541         0.166426
 C         2.086682        -0.617064         1.375507
 C         3.608677        -0.448422         0.959051
 C         3.362803         0.364973        -0.282072
 C         3.680362         1.469658        -1.410274
 O         2.425488         2.044346        -1.251553
 C         2.085759         1.458621         0.001752
 O         2.268674        -0.471103        -0.822407
 H        -0.193631        -1.347817        -0.116952
 H        -0.894886         0.335724         0.345745
 H        -0.226679         0.152029        -1.235634
 H         1.791950        -0.214092         2.392314
 H         1.931260        -1.641838         1.210331
 H         4.104009         0.025971         1.826511
 H         4.033165        -1.380698         0.636145
 H         4.416867         2.135498        -1.051503
 H         3.963149         1.175455        -2.428854
 H         1.892690         2.313870         0.658863
