19
Iteration:  3896charge 0 multiplicity 1
 C        -0.029937        -0.260782        -0.221874
 C         1.309854         0.156809         0.167184
 C         1.913620         0.251677         1.579138
 C         3.471343         0.212522         1.406375
 C         3.270209         0.476305        -0.116323
 C         3.883494         0.694718        -1.517807
 O         2.545936         1.491999        -1.822398
 C         2.155488         1.509874        -0.494999
 O         2.308069        -0.711700        -0.460254
 H        -0.624545        -0.665522         0.605197
 H        -0.592577         0.645440        -0.478596
 H        -0.107210        -1.020234        -0.960867
 H         1.416396         1.088618         2.074717
 H         1.515168        -0.733959         2.105456
 H         3.919937         0.933181         2.082803
 H         3.852058        -0.742977         1.613438
 H         4.731596         1.273102        -1.540433
 H         4.012396        -0.192431        -2.139950
 H         2.076789         2.523938         0.030292
