19
Iteration:  3431charge 0 multiplicity 1
 C        -0.113850        -0.074795        -0.082417
 C         1.364865         0.136139         0.126901
 C         1.961974        -0.182705         1.598118
 C         3.461053         0.039493         1.249606
 C         3.331392         0.429898        -0.145972
 C         3.818899         1.115785        -1.395118
 O         2.525818         1.506505        -1.783700
 C         2.098388         1.470223        -0.402746
 O         2.370195        -0.666318        -0.619605
 H        -0.352745        -0.825348        -0.849024
 H        -0.696369        -0.472168         0.775946
 H        -0.742880         0.796015        -0.433588
 H         1.574106         0.410358         2.450401
 H         1.665670        -1.133461         1.673599
 H         3.964977         0.813679         1.924457
 H         3.991143        -0.964053         1.294545
 H         4.579574         1.990498        -1.197266
 H         4.246150         0.408581        -2.118525
 H         1.915468         2.410451         0.038850
