19
Iteration:  4214
 C        -0.019483        -0.242843        -0.216343
 C         1.357229         0.257945         0.132776
 C         1.855037         0.157624         1.652757
 C         3.518464         0.309040         1.367092
 C         3.214266         0.402465        -0.105573
 C         3.815333         0.700391        -1.484052
 O         2.618801         1.382750        -1.861225
 C         2.133186         1.427452        -0.424071
 O         2.269623        -0.599132        -0.496978
 H         0.052532        -1.351591        -0.331670
 H        -0.671870         0.049012         0.530181
 H        -0.301689         0.252080        -1.158384
 H         1.525319         0.905614         2.291252
 H         1.535688        -0.791275         2.011083
 H         3.963386         1.137970         1.863430
 H         4.010890        -0.581406         1.747038
 H         4.675860         1.486100        -1.543276
 H         3.979421        -0.182742        -2.123102
 H         2.076142         2.478834        -0.135814
