19
Iteration:   509charge 0 multiplicity 1
 C        -0.056287        -0.183053        -0.101839
 C         1.356788         0.116878         0.059452
 C         2.129249        -0.666095         1.312707
 C         3.634324        -0.376234         1.016051
 C         3.290261         0.490666        -0.171031
 C         3.742045         1.308856        -1.286947
 O         2.405606         1.987268        -1.288703
 C         2.098320         1.357522         0.042062
 O         2.209324        -0.331685        -1.033928
 H        -0.127123        -1.361104        -0.025295
 H        -0.888989         0.230457         0.605989
 H        -0.387576         0.091934        -1.158692
 H         2.061772        -0.234897         2.359470
 H         1.840971        -1.670920         1.155485
 H         4.080221         0.287504         1.771617
 H         4.272224        -1.256702         0.900741
 H         4.428629         2.051852        -0.979233
 H         4.079284         0.836282        -2.215024
 H         2.006473         2.068761         0.792225
