19
Iteration:  4190charge 0 multiplicity 1
 C        -0.147267        -0.260635        -0.249965
 C         1.379021         0.226546         0.160025
 C         1.844282         0.260037         1.698833
 C         3.459144         0.197194         1.344016
 C         3.279074         0.441338        -0.163314
 C         3.896418         0.767465        -1.577826
 O         2.576326         1.490835        -1.876665
 C         2.172099         1.450075        -0.416286
 O         2.336309        -0.735508        -0.366741
 H        -0.149640        -1.341421         0.123052
 H        -1.018703         0.318598         0.089606
 H        -0.063785        -0.306070        -1.355440
 H         1.587175         1.118597         2.309054
 H         1.492383        -0.727719         2.207280
 H         4.093760         0.952261         1.908243
 H         3.707194        -0.801474         1.663832
 H         4.750676         1.453177        -1.692392
 H         3.890353        -0.088157        -2.299563
 H         2.067855         2.440390        -0.110544
