19
Iteration:   694
 C        -0.057095        -0.258159        -0.175401
 C         1.325136         0.041299         0.091622
 C         2.100317        -0.532513         1.440360
 C         3.578892        -0.364968         0.992657
 C         3.221953         0.372235        -0.414337
 C         3.758673         1.422890        -1.367464
 O         2.495635         2.197910        -1.219834
 C         2.115563         1.364871         0.032791
 O         2.237352        -0.594228        -0.869326
 H        -0.140080        -0.992641        -0.986978
 H        -0.666187        -0.690491         0.592689
 H        -0.556265         0.610134        -0.635409
 H         1.702660         0.050816         2.317063
 H         1.845945        -1.539942         1.546501
 H         4.177247         0.351438         1.601426
 H         4.075305        -1.300072         0.854082
 H         4.664414         2.109976        -0.966227
 H         3.916362         1.169656        -2.467752
 H         2.274948         2.132508         0.865964
