19
Iteration:  3272
 C        -0.078394        -0.047474        -0.104961
 C         1.375070         0.042289         0.058336
 C         1.925757        -0.163075         1.536830
 C         3.484151         0.024393         1.192420
 C         3.266599         0.373370        -0.213325
 C         3.867047         1.099953        -1.417847
 O         2.454627         1.706418        -1.609629
 C         2.111800         1.356203        -0.254133
 O         2.360009        -0.726665        -0.690110
 H        -0.359677         0.962493         0.153506
 H        -0.164717        -0.190169        -1.170975
 H        -0.492107        -0.872506         0.505464
 H         1.474630         0.325130         2.370941
 H         1.932303        -1.321557         1.824704
 H         3.761378         0.873240         1.794904
 H         4.141322        -0.780653         1.399194
 H         4.419881         2.052608        -1.084304
 H         4.280788         0.810155        -2.468444
 H         2.093755         2.320125         0.390405
