19
Iteration:  1558
 C        -0.118848        -0.161252        -0.218183
 C         1.375416        -0.000100        -0.024933
 C         2.091970        -0.461922         1.463893
 C         3.623994        -0.306406         0.953074
 C         3.283593         0.332373        -0.321166
 C         3.686722         1.406679        -1.367863
 O         2.459858         2.140832        -1.162692
 C         2.068028         1.298844         0.068523
 O         2.337527        -0.597762        -0.927064
 H        -0.449732        -1.151059        -0.136174
 H        -0.623638         0.297879         0.589706
 H        -0.457670         0.312603        -1.139285
 H         1.953594         0.109720         2.445639
 H         1.867984        -1.517224         1.721154
 H         4.222228         0.250654         1.636947
 H         4.054811        -1.241633         0.840329
 H         4.547660         2.143542        -1.246878
 H         3.574896         1.005191        -2.393139
 H         1.970070         1.908340         0.971205
