19
Iteration:  1640
 C        -0.087305        -0.154731        -0.037705
 C         1.378279        -0.032434         0.024312
 C         1.994992        -0.576889         1.408651
 C         3.608655        -0.248590         0.966107
 C         3.263042         0.403478        -0.276021
 C         3.717113         1.412864        -1.304207
 O         2.482097         2.066358        -1.233395
 C         2.062719         1.312023        -0.016662
 O         2.338206        -0.523124        -1.023516
 H        -0.289364        -1.279931        -0.037947
 H        -0.524214         0.526059         0.768032
 H        -0.486980         0.139161        -1.027087
 H         1.970240         0.017054         2.270986
 H         1.760097        -1.638424         1.585638
 H         4.177368         0.420550         1.720942
 H         4.120123        -1.316227         0.812269
 H         4.583759         2.094577        -1.157787
 H         3.907741         1.053832        -2.343891
 H         1.952039         2.009323         0.835816
