19
Iteration:   252
 C        -0.163126        -0.181443        -0.067715
 C         1.361658         0.017062         0.043520
 C         2.120168        -0.655905         1.366621
 C         3.625545        -0.394542         0.969462
 C         3.276817         0.367289        -0.368140
 C         3.801190         1.577123        -1.163939
 O         2.425022         2.174781        -1.242245
 C         2.091744         1.315135        -0.083451
 O         2.243399        -0.572479        -0.997566
 H        -0.606000         0.589152         0.574438
 H        -0.261345         0.019064        -1.140522
 H        -0.470838        -1.221546         0.216362
 H         1.822722        -0.361845         2.414016
 H         1.835773        -1.668889         1.328732
 H         4.310787         0.256656         1.576420
 H         4.121456        -1.291067         0.876517
 H         4.449230         2.137087        -0.501875
 H         4.103119         1.545316        -2.189393
 H         2.173578         1.930515         0.812520
