19
Iteration:  3032charge 0 multiplicity 1
 C        -0.132361        -0.232565        -0.065807
 C         1.311345         0.135404         0.112506
 C         2.046212        -0.303885         1.465242
 C         3.519809        -0.171609         1.177427
 C         3.281574         0.433971        -0.215278
 C         3.836072         1.237934        -1.391631
 O         2.509132         1.843230        -1.553886
 C         2.150947         1.402887        -0.156727
 O         2.269773        -0.579075        -0.870808
 H        -0.862840         0.357800         0.549236
 H        -0.245347        -0.209913        -1.216508
 H        -0.279552        -1.299494         0.373418
 H         1.765969         0.150447         2.423359
 H         1.616027        -1.388898         1.628723
 H         3.985738         0.575243         1.904320
 H         4.017279        -1.139183         1.262394
 H         4.613254         1.751954        -0.906716
 H         4.189981         0.771346        -2.336272
 H         2.120589         2.282022         0.486746
