19
Iteration:   435charge 0 multiplicity 1
 C        -0.153901        -0.193804        -0.205031
 C         1.344504         0.016947         0.083328
 C         2.095907        -0.526085         1.387558
 C         3.612202        -0.267311         0.978679
 C         3.294308         0.371612        -0.343473
 C         3.726404         1.326594        -1.351715
 O         2.452879         2.051767        -1.149682
 C         2.137411         1.291538         0.050357
 O         2.300727        -0.439332        -0.960452
 H        -0.253279        -0.856856        -1.017739
 H        -0.720466        -0.701931         0.556616
 H        -0.682675         0.706431        -0.541064
 H         1.856250         0.181734         2.207211
 H         1.926467        -1.511925         1.730156
 H         4.110008         0.414141         1.707940
 H         4.312404        -1.031050         0.991514
 H         4.585011         2.019077        -1.116365
 H         3.697011         0.923154        -2.404696
 H         1.976711         1.931429         0.946995
