19
Iteration:   891charge 0 multiplicity 1
 C        -0.112729        -0.163944        -0.036933
 C         1.353178         0.009086         0.025925
 C         2.030352        -0.533731         1.290491
 C         3.622655        -0.359431         0.983989
 C         3.300829         0.410523        -0.303810
 C         3.753703         1.524445        -1.313751
 O         2.446301         2.177455        -1.233405
 C         2.103821         1.262765        -0.053931
 O         2.281600        -0.674693        -0.916471
 H        -0.382774        -1.203308        -0.138476
 H        -0.594651         0.258976         0.827215
 H        -0.510993         0.359622        -0.917593
 H         1.760291         0.094704         2.194677
 H         1.840716        -1.609234         1.389397
 H         4.150053         0.283904         1.725765
 H         4.171197        -1.290060         0.892302
 H         4.455911         2.006574        -0.698820
 H         4.103510         1.391818        -2.334070
 H         2.282093         1.970345         0.843022
