19
Iteration:  2494
 C        -0.026250        -0.200743        -0.192664
 C         1.391879         0.106466         0.122542
 C         2.072674        -0.505830         1.462773
 C         3.570562        -0.263664         1.069167
 C         3.314618         0.353058        -0.322787
 C         3.658623         1.288405        -1.382627
 O         2.428146         2.022929        -1.276181
 C         2.154114         1.430662        -0.042469
 O         2.261105        -0.514305        -0.886246
 H        -0.634114         0.579840        -0.708886
 H        -0.029996        -0.979153        -0.950463
 H        -0.633126        -0.476613         0.661938
 H         1.460238        -0.082312         2.370629
 H         1.878095        -1.520575         1.254754
 H         4.145019         0.389331         1.708610
 H         4.191514        -1.285764         1.061984
 H         4.537674         1.985435        -1.314452
 H         3.840129         0.691249        -2.298386
 H         2.127569         2.170103         0.743694
