19
Iteration:    12charge 0 multiplicity 1
 C        -0.046315        -0.185459        -0.184342
 C         1.384633        -0.010054        -0.060088
 C         2.113208        -0.714866         1.272916
 C         3.618637        -0.455985         0.910688
 C         3.265982         0.410015        -0.320421
 C         3.712464         1.499456        -1.341581
 O         2.371965         2.250622        -0.935963
 C         2.165250         1.270650         0.185895
 O         2.214457        -0.443113        -1.087096
 H        -0.400613        -0.076370         0.835495
 H        -0.491110         0.577035        -0.834307
 H        -0.182837        -1.206464        -0.565411
 H         2.011772         0.041726         2.058590
 H         1.876320        -1.686451         1.668323
 H         4.080137         0.080653         1.762373
 H         4.249674        -1.267838         0.595500
 H         4.594974         2.051944        -1.016872
 H         3.770946         1.200449        -2.391705
 H         2.080830         1.714607         1.194561
