19
Iteration:  4047
 C        -0.041339        -0.223663        -0.296482
 C         1.323939         0.112508         0.129240
 C         1.942830         0.418589         1.611726
 C         3.405730         0.293153         1.396009
 C         3.293883         0.262894        -0.249539
 C         3.932562         0.779769        -1.557545
 O         2.544546         1.567377        -1.806307
 C         2.125727         1.355773        -0.434157
 O         2.283248        -0.840264        -0.308252
 H        -0.096212        -1.294804        -0.292612
 H        -0.823765        -0.026888         0.474328
 H        -0.365704         0.260322        -1.201742
 H         1.668533         1.280894         2.091477
 H         1.563847        -0.467234         2.225836
 H         4.013086         1.254375         1.664343
 H         3.910550        -0.568917         1.874707
 H         4.668235         1.606862        -1.303306
 H         4.021911         0.143857        -2.550501
 H         1.945221         2.266582         0.153630
