19
Iteration:  1284
 C        -0.108250        -0.225777        -0.186752
 C         1.400822         0.161333         0.167431
 C         2.065756        -0.648927         1.305978
 C         3.599439        -0.382840         1.072113
 C         3.319296         0.392855        -0.198510
 C         3.653424         1.346576        -1.368175
 O         2.410064         2.058363        -1.257377
 C         2.201139         1.404788         0.066165
 O         2.314713        -0.392604        -1.022008
 H        -0.143569        -1.291723        -0.457978
 H        -0.813816        -0.259384         0.707970
 H        -0.695973         0.331415        -0.950151
 H         1.585261        -0.174925         2.132577
 H         1.802630        -1.755522         1.352806
 H         4.109916         0.249498         1.872599
 H         4.300851        -1.240560         0.665172
 H         4.411678         2.031949        -1.144850
 H         3.708544         0.818583        -2.372865
 H         2.108305         2.178646         0.860975
