19
Iteration:  3446charge 0 multiplicity 1
 C        -0.102335        -0.200461        -0.090166
 C         1.340399         0.199734         0.087063
 C         1.952705        -0.082232         1.507517
 C         3.533891        -0.017095         1.387024
 C         3.234376         0.505855        -0.172174
 C         3.865811         0.959102        -1.440075
 O         2.516880         1.597587        -1.795396
 C         2.077697         1.382409        -0.340148
 O         2.343508        -0.574309        -0.618136
 H        -0.160418        -0.736057        -1.036726
 H        -0.449663        -0.667791         0.830908
 H        -0.550481         0.859122        -0.132686
 H         1.547940         0.436428         2.340001
 H         1.737968        -1.216660         1.830758
 H         4.066986         0.614197         2.107467
 H         3.979420        -0.993253         1.346398
 H         4.530817         1.774038        -1.297776
 H         4.302445         0.282731        -2.284265
 H         1.945977         2.400567         0.128827
