19
Iteration:  3299charge 0 multiplicity 1
 C        -0.199672        -0.128769        -0.092814
 C         1.302557         0.061327         0.081239
 C         2.000261        -0.129541         1.556164
 C         3.510580        -0.008609         1.192185
 C         3.283550         0.360589        -0.204091
 C         3.881959         1.155907        -1.378086
 O         2.539168         1.736809        -1.668091
 C         2.128533         1.294868        -0.352146
 O         2.323019        -0.683146        -0.665361
 H        -0.645338         0.181978         0.904553
 H        -0.558255         0.484572        -0.959259
 H        -0.361304        -1.197659        -0.242307
 H         1.727205         0.649819         2.329533
 H         1.816523        -0.992257         2.059512
 H         3.904216         0.812440         1.837087
 H         4.128733        -0.957758         1.340384
 H         4.460966         2.054414        -1.065392
 H         4.321446         0.750971        -2.243500
 H         2.066009         2.171086         0.228792
