19
Iteration:  3390
 C        -0.107510        -0.095762        -0.208805
 C         1.383865         0.110050         0.061533
 C         1.951562        -0.041454         1.584336
 C         3.499116         0.105346         1.292784
 C         3.286844         0.280721        -0.207272
 C         3.795277         1.055899        -1.458692
 O         2.491840         1.720268        -1.627430
 C         2.136335         1.359010        -0.276255
 O         2.335672        -0.795409        -0.668784
 H        -0.299029        -1.144214        -0.388658
 H        -0.531911         0.094543         0.790539
 H        -0.444309         0.594415        -1.095467
 H         1.529485         0.742019         2.178654
 H         1.994870        -1.146847         2.097476
 H         4.037445         1.033749         1.614054
 H         4.138353        -0.634278         1.757708
 H         4.453677         1.823703        -1.160488
 H         4.076356         0.321892        -2.313978
 H         2.006183         2.314832         0.295091
