19
Iteration:   752
 C        -0.059303        -0.182225        -0.103019
 C         1.360377         0.077247         0.102159
 C         2.083877        -0.633296         1.399506
 C         3.567512        -0.424145         1.050719
 C         3.323469         0.477694        -0.286009
 C         3.695770         1.514627        -1.357698
 O         2.427153         2.112349        -1.323768
 C         2.148764         1.389341        -0.018076
 O         2.267872        -0.609658        -0.939745
 H        -0.311582        -1.289753        -0.157871
 H        -0.775703         0.316787         0.655769
 H        -0.442413         0.324813        -1.056290
 H         1.779393        -0.361613         2.393966
 H         1.729527        -1.708058         1.257987
 H         4.182893        -0.086104         1.888772
 H         4.131857        -1.325252         0.735482
 H         4.424951         2.231854        -0.794303
 H         4.083328         1.206653        -2.399025
 H         2.176837         2.126620         0.731907
