19
Iteration:  3861charge 0 multiplicity 1
 C        -0.189575        -0.164736        -0.117470
 C         1.304581         0.197454         0.168618
 C         1.880183         0.126824         1.570797
 C         3.445067         0.317080         1.391170
 C         3.262489         0.416046        -0.204885
 C         4.036974         0.831803        -1.457139
 O         2.579920         1.407456        -1.889133
 C         2.178953         1.356399        -0.458351
 O         2.281766        -0.728002        -0.465457
 H        -0.632038        -0.131838         0.822229
 H        -0.526039         0.653525        -0.784250
 H        -0.204557        -1.084552        -0.678408
 H         1.396933         0.726236         2.305691
 H         1.744164        -0.994784         1.879940
 H         3.799220         1.280409         1.833467
 H         4.044019        -0.529398         1.800483
 H         4.622937         1.704124        -1.362021
 H         4.314270         0.152710        -2.319592
 H         2.179309         2.459833        -0.048498
