19
Iteration:  3383charge 0 multiplicity 1
 C        -0.038331        -0.122678        -0.222935
 C         1.331501         0.102438         0.048746
 C         1.948341        -0.036227         1.579937
 C         3.514295         0.095096         1.278040
 C         3.250874         0.272581        -0.208874
 C         3.844203         0.995993        -1.523199
 O         2.478094         1.775140        -1.618217
 C         2.104151         1.395602        -0.223949
 O         2.353080        -0.775943        -0.629812
 H        -0.250408        -1.197390        -0.275747
 H        -0.605838         0.224484         0.644976
 H        -0.463345         0.330492        -1.070448
 H         1.606677         0.800426         2.225993
 H         1.705708        -1.036825         2.104903
 H         3.847642         1.025243         1.705926
 H         4.213857        -0.723122         1.505025
 H         4.674821         1.694195        -1.297057
 H         4.122826         0.290027        -2.317589
 H         1.937296         2.258402         0.497432
