19
Iteration:  1393charge 0 multiplicity 1
 C        -0.068337        -0.231593        -0.281768
 C         1.356218         0.077661         0.159239
 C         2.056824        -0.654638         1.346470
 C         3.576897        -0.384499         0.920248
 C         3.255880         0.412107        -0.279029
 C         3.717255         1.327985        -1.431965
 O         2.454028         2.110983        -1.168931
 C         2.127285         1.514615         0.065951
 O         2.287947        -0.454353        -0.799508
 H        -0.051770        -1.248457         0.034571
 H        -0.766129         0.363202         0.281361
 H        -0.130421        -0.215253        -1.357597
 H         1.801684        -0.306321         2.385176
 H         1.858224        -1.783599         1.404801
 H         4.150460         0.083257         1.751531
 H         4.224465        -1.198291         0.498163
 H         4.565510         2.063671        -1.435624
 H         3.662673         0.935021        -2.524209
 H         2.092218         2.177218         0.971459
