19
Iteration:   841
 C        -0.038861        -0.308283        -0.195165
 C         1.375747         0.160401         0.162583
 C         2.083387        -0.608656         1.349231
 C         3.622894        -0.443631         0.954476
 C         3.301083         0.456318        -0.242188
 C         3.730235         1.375836        -1.359765
 O         2.376569         2.098465        -1.239925
 C         2.160405         1.488259         0.042343
 O         2.220682        -0.462134        -0.909526
 H        -0.468480        -1.203443         0.356004
 H        -0.819634         0.521031        -0.027943
 H         0.032000        -0.482034        -1.295360
 H         1.897295        -0.123086         2.285007
 H         1.835373        -1.726306         1.273091
 H         4.240746        -0.011327         1.735529
 H         3.948060        -1.489188         0.639391
 H         4.660130         2.080711        -1.157570
 H         3.764697         0.661659        -2.233039
 H         2.077433         2.266281         0.777206
