19
Iteration:  1257charge 0 multiplicity 1
 C         0.011602        -0.240723        -0.273622
 C         1.412138         0.045856         0.201141
 C         2.047177        -0.617604         1.404673
 C         3.535662        -0.403277         0.969383
 C         3.264192         0.440848        -0.280149
 C         3.664034         1.415279        -1.466089
 O         2.461326         2.147407        -1.221800
 C         2.131984         1.372613         0.082374
 O         2.293571        -0.475600        -0.856843
 H        -0.373515        -1.253652        -0.208633
 H        -0.608940         0.255625         0.439032
 H        -0.209009         0.206046        -1.238331
 H         1.511133        -0.196019         2.340781
 H         1.888234        -1.661239         1.325181
 H         4.214311         0.100531         1.613235
 H         3.910777        -1.301326         0.619223
 H         4.543535         2.171648        -1.346392
 H         3.655688         0.815419        -2.372943
 H         2.136114         2.072176         0.936632
