19
Iteration:  2438
 C        -0.131819        -0.123897        -0.030649
 C         1.405633         0.091417         0.041342
 C         2.089904        -0.526118         1.374507
 C         3.565450        -0.304500         1.064350
 C         3.288354         0.330498        -0.312657
 C         3.800823         1.431549        -1.258367
 O         2.378464         2.006852        -1.414536
 C         2.093261         1.374946        -0.073518
 O         2.331119        -0.589320        -0.924306
 H        -0.583393         0.727693        -0.508989
 H        -0.289324        -1.013734        -0.584971
 H        -0.600348        -0.340887         0.985831
 H         1.601619         0.153554         2.145775
 H         1.710075        -1.497690         1.639612
 H         4.054686         0.225679         1.887364
 H         4.188068        -1.280846         0.799179
 H         4.456742         2.045458        -0.654077
 H         4.233871         1.004793        -2.155962
 H         2.081578         2.112444         0.690707
