19
Iteration:   144
 C        -0.161281        -0.190622        -0.176788
 C         1.335333        -0.047734         0.086298
 C         2.140262        -0.679491         1.334994
 C         3.634481        -0.365388         0.874824
 C         3.275934         0.402244        -0.360970
 C         3.703838         1.540857        -1.242943
 O         2.432450         2.147175        -1.057171
 C         2.185941         1.307213         0.111483
 O         2.242722        -0.497947        -1.084059
 H        -0.384043        -0.583941        -1.141905
 H        -0.617330        -0.875556         0.574569
 H        -0.726892         0.778030        -0.147865
 H         1.986741        -0.024318         2.232053
 H         1.862133        -1.666610         1.520655
 H         4.077244         0.378436         1.596035
 H         4.304012        -1.149088         0.696070
 H         4.558147         2.192403        -0.896576
 H         3.988266         1.320970        -2.240150
 H         2.316940         1.744393         1.037207
