19
Iteration:  3179charge 0 multiplicity 1
 C        -0.146118        -0.217732        -0.089457
 C         1.348899         0.046218         0.042889
 C         1.984258        -0.093522         1.513146
 C         3.503641        -0.109453         1.169842
 C         3.294488         0.303244        -0.262247
 C         3.837142         1.244553        -1.381977
 O         2.548862         1.817421        -1.570085
 C         2.123521         1.358860        -0.175878
 O         2.290716        -0.666938        -0.797008
 H        -0.412314        -0.828535        -0.990099
 H        -0.384744        -0.731502         0.850962
 H        -0.667512         0.730024        -0.060206
 H         1.670460         0.731394         2.271119
 H         1.770842        -0.949391         2.076460
 H         4.079618         0.712937         1.647933
 H         3.960892        -1.107893         1.442889
 H         4.604352         1.868559        -1.003755
 H         4.159376         0.753034        -2.242316
 H         1.984562         2.119189         0.565171
