19
Iteration:  2860charge 0 multiplicity 1
 C        -0.170101        -0.143448        -0.066919
 C         1.330275         0.023806         0.064968
 C         2.041376        -0.476769         1.410860
 C         3.561447        -0.164508         1.102383
 C         3.236482         0.406850        -0.276373
 C         3.872792         1.358062        -1.339189
 O         2.492166         1.999708        -1.415574
 C         2.139507         1.298388        -0.123433
 O         2.271693        -0.648529        -0.873818
 H        -0.539226        -0.877137         0.689392
 H        -0.633670         0.777603         0.269088
 H        -0.289316        -0.305719        -1.175148
 H         1.506975        -0.024666         2.291627
 H         1.978478        -1.586006         1.585816
 H         4.155842         0.684263         1.592603
 H         4.134950        -1.124190         1.125080
 H         4.488504         2.180214        -0.864903
 H         4.237893         1.046381        -2.336325
 H         2.141165         2.079541         0.672099
