19
Iteration:  2100charge 0 multiplicity 1
 C        -0.071117        -0.289110        -0.202392
 C         1.407573         0.048425         0.057151
 C         2.012306        -0.370544         1.472712
 C         3.595515        -0.367969         1.011832
 C         3.301998         0.339664        -0.292195
 C         3.700738         1.447611        -1.429138
 O         2.471430         2.132984        -1.214171
 C         2.168800         1.363404        -0.023033
 O         2.241614        -0.625820        -0.893843
 H        -0.374115        -1.209774        -0.701766
 H        -0.733622        -0.452840         0.708733
 H        -0.480291         0.714945        -0.579978
 H         1.685819         0.408862         2.207315
 H         1.770935        -1.398614         1.677215
 H         4.192831         0.290966         1.501802
 H         4.037733        -1.362788         0.785191
 H         4.579705         1.948455        -1.069156
 H         3.716942         1.071788        -2.434324
 H         2.352568         1.923072         0.988654
