19
Iteration:  1517
 C        -0.106601        -0.317367        -0.197727
 C         1.388183         0.136910         0.084027
 C         2.071372        -0.540453         1.414580
 C         3.585821        -0.366192         0.986981
 C         3.254896         0.374289        -0.322742
 C         3.695837         1.357090        -1.388655
 O         2.482320         2.117890        -1.205354
 C         2.175950         1.415375         0.065581
 O         2.237637        -0.475504        -0.930167
 H         0.070567        -1.362838        -0.561419
 H        -0.491568        -0.320844         0.824185
 H        -0.609961         0.336113        -0.950394
 H         1.813173        -0.052966         2.335965
 H         1.770189        -1.550847         1.370019
 H         4.081834         0.535632         1.562402
 H         4.173401        -1.311489         1.007345
 H         4.655095         1.864987        -1.161214
 H         3.697112         0.834965        -2.313309
 H         2.078989         2.147520         0.845406
