19
Iteration:  3145charge 0 multiplicity 1
 C        -0.162591        -0.122021        -0.079876
 C         1.356859         0.080568         0.074817
 C         2.011060        -0.322528         1.507492
 C         3.480415        -0.124589         1.222244
 C         3.283441         0.411552        -0.261160
 C         3.834532         1.225645        -1.386408
 O         2.521710         1.789044        -1.657091
 C         2.105050         1.377434        -0.187326
 O         2.350901        -0.612115        -0.723200
 H        -0.488138        -1.203897        -0.305587
 H        -0.452878         0.112730         0.956149
 H        -0.620152         0.630900        -0.765446
 H         1.645925         0.286411         2.441023
 H         1.803351        -1.382153         1.464185
 H         4.069056         0.708654         1.681895
 H         4.037807        -1.129773         1.378011
 H         4.509106         1.968025        -1.096307
 H         4.223391         0.663773        -2.193150
 H         1.955370         2.296130         0.331467
