19
Iteration:  3153
 C        -0.138698        -0.120126        -0.017898
 C         1.340056         0.087755         0.108802
 C         1.955831        -0.272191         1.456821
 C         3.496695        -0.101450         1.159531
 C         3.278485         0.372910        -0.231465
 C         3.903663         1.231484        -1.334181
 O         2.467442         1.808772        -1.639962
 C         2.106381         1.380368        -0.278723
 O         2.365399        -0.657562        -0.751708
 H        -0.307824        -1.133191        -0.525627
 H        -0.557113        -0.084788         1.035633
 H        -0.537855         0.741793        -0.663187
 H         1.610769         0.284314         2.313702
 H         1.882935        -1.348363         1.848572
 H         3.957618         0.611179         1.897532
 H         4.013621        -1.081172         1.252041
 H         4.680891         1.933384        -0.984405
 H         4.182428         0.637137        -2.264238
 H         1.987703         2.170939         0.483335
