19
Iteration:  3531charge 0 multiplicity 1
 C        -0.128869        -0.187443        -0.132825
 C         1.317093         0.117373         0.149860
 C         1.903675        -0.007972         1.617223
 C         3.463796         0.124850         1.300185
 C         3.345336         0.382666        -0.197329
 C         3.931879         0.925348        -1.462027
 O         2.487977         1.645757        -1.764071
 C         2.156541         1.414886        -0.331061
 O         2.363077        -0.679600        -0.630902
 H        -0.625763         0.740614        -0.437526
 H        -0.308425        -0.777837        -1.036251
 H        -0.856821        -0.526240         0.696799
 H         1.476788         0.752326         2.276875
 H         1.690596        -0.975946         2.013971
 H         4.081339         0.882145         1.886914
 H         4.000475        -0.849761         1.523179
 H         4.704180         1.718390        -1.332639
 H         4.042422         0.149936        -2.313148
 H         1.858791         2.279545         0.200752
