19
Iteration:   437
 C        -0.164436        -0.199495        -0.213426
 C         1.354406         0.015138         0.057505
 C         2.094647        -0.508072         1.396456
 C         3.615154        -0.270042         0.980874
 C         3.292328         0.369265        -0.342034
 C         3.712776         1.329692        -1.358483
 O         2.452017         2.059922        -1.148106
 C         2.151391         1.275706         0.063791
 O         2.296547        -0.450175        -0.953645
 H        -0.252252        -0.884875        -1.048265
 H        -0.684507        -0.667283         0.619150
 H        -0.611275         0.777802        -0.502832
 H         1.801327         0.222830         2.175580
 H         1.876766        -1.551202         1.713682
 H         4.140087         0.459453         1.711721
 H         4.392239        -1.058695         0.953841
 H         4.582137         2.005237        -1.082854
 H         3.714182         0.958922        -2.425904
 H         1.935574         1.941656         0.992363
