19
Iteration:  3828charge 0 multiplicity 1
 C        -0.101085        -0.052225        -0.092423
 C         1.356957         0.075495         0.113701
 C         1.833069         0.208896         1.538206
 C         3.420905         0.288359         1.360764
 C         3.213201         0.319434        -0.188029
 C         4.002180         0.912162        -1.422030
 O         2.546725         1.465483        -1.846148
 C         2.134379         1.256364        -0.458565
 O         2.381726        -0.789157        -0.511262
 H        -0.672728         0.497391         0.638855
 H        -0.542201         0.454211        -0.979410
 H        -0.533319        -1.052693         0.038632
 H         1.535222         1.069575         2.099693
 H         1.631014        -0.779648         2.163333
 H         3.866030         1.271754         1.644543
 H         3.979927        -0.591990         1.774348
 H         4.654643         1.682624        -1.200554
 H         4.515628         0.285241        -2.244558
 H         1.948028         2.312008         0.048875
