19
Iteration:  3237
 C        -0.070985        -0.163174        -0.223559
 C         1.328737         0.142970         0.124473
 C         1.959566        -0.208753         1.582050
 C         3.552518        -0.084103         1.309592
 C         3.275144         0.432125        -0.147455
 C         3.760351         0.981686        -1.552791
 O         2.463174         1.781264        -1.578879
 C         2.183486         1.469548        -0.242943
 O         2.359827        -0.588182        -0.703514
 H        -0.597636         0.506828        -0.806790
 H        -0.099295        -1.034421        -0.888888
 H        -0.814631        -0.447430         0.518874
 H         1.703077         0.381430         2.471540
 H         1.840696        -1.387294         1.614080
 H         3.989919         0.711693         1.903088
 H         4.090935        -0.983295         1.415417
 H         4.504343         1.808288        -1.447684
 H         3.930983         0.288373        -2.456008
 H         1.968041         2.323100         0.496246
