19
Iteration:  3201charge 0 multiplicity 1
 C        -0.138796        -0.301949        -0.180443
 C         1.344993         0.130466         0.138343
 C         1.990752        -0.133712         1.575140
 C         3.533643        -0.102633         1.210091
 C         3.246273         0.386336        -0.251119
 C         3.824929         1.086076        -1.481835
 O         2.530658         1.876826        -1.560442
 C         2.162044         1.427751        -0.224593
 O         2.274598        -0.644326        -0.721948
 H        -0.086764        -0.230227        -1.286394
 H        -0.271013        -1.324566         0.192501
 H        -0.823181         0.393179         0.292023
 H         1.757292         0.675148         2.385181
 H         1.549216        -0.994989         1.978963
 H         4.205024         0.601916         1.746179
 H         4.017004        -1.134048         1.205008
 H         4.549947         1.766916        -1.147065
 H         4.139152         0.516474        -2.291346
 H         2.059084         2.200796         0.504807
