19
Iteration:   498
 C        -0.127245        -0.182697        -0.176979
 C         1.380941         0.065259         0.051485
 C         2.170030        -0.634192         1.340199
 C         3.639476        -0.365182         1.045865
 C         3.316236         0.425487        -0.205207
 C         3.731727         1.394381        -1.279268
 O         2.379235         1.979986        -1.273589
 C         2.165822         1.438559         0.049466
 O         2.195325        -0.401378        -1.007378
 H        -0.233785        -1.320502        -0.398642
 H        -0.668830         0.055178         0.822364
 H        -0.577310         0.363877        -1.074036
 H         1.685552        -0.180738         2.238037
 H         1.964158        -1.677903         1.438102
 H         4.198047         0.127281         1.829110
 H         4.136239        -1.283703         0.704520
 H         4.536365         2.055927        -1.057316
 H         3.893517         0.818837        -2.191904
 H         2.092182         2.197673         0.770681
