19
Iteration:  2195charge 0 multiplicity 1
 C        -0.107803        -0.075248        -0.077057
 C         1.391897        -0.008143        -0.060925
 C         2.075901        -0.489475         1.428625
 C         3.604421        -0.295107         1.020630
 C         3.354289         0.394813        -0.371754
 C         3.742081         1.434857        -1.298260
 O         2.375783         1.977210        -1.210841
 C         2.121058         1.279310         0.011754
 O         2.297145        -0.573288        -0.971795
 H        -0.552735        -0.933940         0.434850
 H        -0.654682         0.872446         0.034906
 H        -0.404861        -0.242038        -1.202598
 H         1.820721         0.079004         2.270286
 H         1.821387        -1.556841         1.540374
 H         4.085760         0.414582         1.801105
 H         3.962342        -1.294819         1.014582
 H         4.496788         2.171701        -0.792218
 H         3.979193         1.325402        -2.394229
 H         2.044533         1.908911         0.869110
