19
Iteration:  2663charge 0 multiplicity 1
 C        -0.038540        -0.280215        -0.275084
 C         1.417020         0.098731         0.119315
 C         2.052556        -0.459619         1.463587
 C         3.596499        -0.339974         0.957207
 C         3.238492         0.356133        -0.313137
 C         3.698715         1.309809        -1.402168
 O         2.388559         2.113404        -1.219322
 C         2.173034         1.442598         0.011713
 O         2.277754        -0.538906        -0.836580
 H        -0.181468        -0.179943        -1.351001
 H        -0.343752        -1.295449         0.025968
 H        -0.672825         0.561494         0.261518
 H         1.742893         0.152730         2.275095
 H         2.069727        -1.559918         1.573137
 H         4.180371         0.199483         1.709762
 H         3.826337        -1.345260         0.962106
 H         4.631603         1.835230        -1.262960
 H         3.743865         0.836650        -2.397898
 H         2.231823         2.184787         0.860008
