19
Iteration:  4553
 C        -0.088551        -0.089568        -0.097084
 C         1.387289         0.252185         0.149287
 C         1.839975         0.114993         1.575113
 C         3.495480         0.293532         1.382706
 C         3.280127         0.478626        -0.122370
 C         3.894537         0.872725        -1.456258
 O         2.572291         1.274919        -1.930797
 C         2.114408         1.411015        -0.492963
 O         2.287801        -0.772021        -0.456312
 H        -0.039692        -1.116549        -0.351105
 H        -0.588874        -0.043385         0.865204
 H        -0.465955         0.411803        -0.930807
 H         1.623460         0.954215         2.299927
 H         1.504705        -0.871627         1.836500
 H         3.846567         1.125857         1.880489
 H         3.925049        -0.666836         1.624599
 H         4.737211         1.720712        -1.342400
 H         4.221456         0.095920        -2.179350
 H         1.944861         2.418255        -0.282304
