19
Iteration:   669
 C        -0.138131        -0.158520        -0.094675
 C         1.357289        -0.001519         0.028715
 C         2.044252        -0.538939         1.369851
 C         3.600879        -0.230506         0.983211
 C         3.288800         0.365309        -0.373027
 C         3.737314         1.412716        -1.286558
 O         2.438028         2.166714        -1.180396
 C         2.189299         1.327374        -0.046756
 O         2.286023        -0.674804        -0.944776
 H        -0.342697        -0.924663        -0.824039
 H        -0.554423        -0.522758         0.826593
 H        -0.632997         0.713582        -0.480662
 H         1.622728        -0.065232         2.257285
 H         1.848170        -1.653155         1.463792
 H         4.065752         0.500038         1.618544
 H         4.245668        -1.175307         0.951668
 H         4.593925         2.114505        -0.849421
 H         3.944263         1.082229        -2.300494
 H         2.213715         2.054136         0.861725
