19
Iteration:  4197
 C        -0.090363        -0.264167        -0.264956
 C         1.315223         0.243966         0.145512
 C         1.933581         0.206212         1.719376
 C         3.381340         0.181835         1.410682
 C         3.310156         0.457688        -0.178272
 C         3.870212         0.726086        -1.547599
 O         2.562533         1.491258        -1.893323
 C         2.191169         1.454957        -0.480921
 O         2.317368        -0.680040        -0.373916
 H        -0.120480        -1.325339        -0.058117
 H        -1.089865         0.157072         0.184874
 H        -0.323045        -0.228970        -1.341593
 H         1.678618         1.137616         2.371013
 H         1.616127        -0.736254         2.262043
 H         3.987219         0.996056         1.925943
 H         4.022594        -0.716351         1.677574
 H         4.708895         1.377397        -1.599455
 H         3.950256        -0.145025        -2.211713
 H         2.106389         2.513824        -0.088531
