19
Iteration:  3075
 C        -0.183551        -0.193739        -0.246168
 C         1.362980         0.031073         0.115944
 C         2.045347        -0.145446         1.564851
 C         3.528578        -0.181016         1.171734
 C         3.339514         0.315412        -0.220876
 C         3.775761         1.219145        -1.534055
 O         2.448466         2.009304        -1.461051
 C         2.148497         1.336301        -0.128194
 O         2.340099        -0.696839        -0.729396
 H        -0.875477        -0.449514         0.596779
 H        -0.344042         0.789297        -0.806924
 H        -0.077031        -1.024691        -1.012585
 H         1.736824         0.617651         2.188233
 H         1.688184        -1.194754         1.916083
 H         4.000997         0.514110         1.898960
 H         4.033477        -1.112224         1.187777
 H         4.536481         1.968772        -1.549166
 H         3.895496         0.427967        -2.336214
 H         2.130790         1.982637         0.780412
