19
Iteration:  2988charge 0 multiplicity 1
 C        -0.091210        -0.100000        -0.071801
 C         1.386523         0.092437         0.098653
 C         2.056168        -0.413658         1.411731
 C         3.529577        -0.124315         1.250769
 C         3.252872         0.406333        -0.229252
 C         3.757285         1.217717        -1.364590
 O         2.515261         1.869378        -1.499612
 C         2.070547         1.401173        -0.187436
 O         2.332761        -0.620103        -0.883621
 H        -0.643994         0.767231        -0.489327
 H        -0.335260        -1.048719        -0.718369
 H        -0.638175        -0.219534         0.940842
 H         1.606682         0.014598         2.301927
 H         1.930153        -1.554493         1.618302
 H         4.049920         0.508465         2.041220
 H         4.086934        -1.021339         1.049153
 H         4.420370         2.040612        -1.245729
 H         4.015374         0.650406        -2.290413
 H         1.949649         2.217818         0.513367
