19
Iteration:  4689
 C        -0.128097        -0.022130        -0.123998
 C         1.340129         0.135178         0.122381
 C         1.850212         0.201356         1.562879
 C         3.440511         0.269551         1.288875
 C         3.318129         0.333237        -0.229590
 C         3.910538         0.958227        -1.457808
 O         2.515243         1.417589        -1.849323
 C         2.189282         1.279969        -0.423527
 O         2.387690        -0.857161        -0.374221
 H        -0.657186        -0.737876         0.578653
 H        -0.616018         0.916778         0.006545
 H        -0.431833        -0.289079        -1.175100
 H         1.630387         1.039702         2.222948
 H         1.586649        -0.877166         1.808563
 H         3.748123         1.285193         1.652526
 H         3.788064        -0.626071         1.754740
 H         4.498172         1.965547        -1.380666
 H         4.433328         0.301940        -2.223869
 H         2.079596         2.258664        -0.045999
