19
Iteration:  3619
 C        -0.110844        -0.231547        -0.140639
 C         1.351147         0.177825         0.107078
 C         1.893419         0.147431         1.575796
 C         3.477034         0.202998         1.278011
 C         3.245737         0.251850        -0.226067
 C         3.817813         0.948521        -1.471541
 O         2.578202         1.678038        -1.686612
 C         2.192939         1.326342        -0.330108
 O         2.349315        -0.774507        -0.565277
 H        -0.666517        -0.806396         0.627332
 H        -0.694861         0.646746        -0.533756
 H         0.025089        -0.837985        -1.104273
 H         1.609670         1.172633         2.093784
 H         1.431682        -0.710476         2.159497
 H         3.842920         1.193996         1.674090
 H         3.980334        -0.769842         1.566461
 H         4.764826         1.483860        -1.424515
 H         3.807079         0.187015        -2.383714
 H         2.205844         2.187662         0.338031
