19
Iteration:  4331charge 0 multiplicity 1
 C        -0.013276        -0.265393        -0.171775
 C         1.354956         0.229954         0.170884
 C         1.758352         0.173366         1.623938
 C         3.389273         0.268442         1.283306
 C         3.301602         0.446479        -0.179822
 C         3.793489         0.680838        -1.561204
 O         2.650726         1.503497        -1.866785
 C         2.192880         1.520014        -0.411535
 O         2.338048        -0.720378        -0.380659
 H         0.054507        -1.370854         0.038977
 H        -0.659706         0.232743         0.515863
 H        -0.270368         0.001415        -1.218268
 H         1.434717         1.023614         2.287827
 H         1.322088        -0.802984         2.144911
 H         4.068421         1.037143         1.681635
 H         3.873408        -0.619671         1.587191
 H         4.706827         1.268163        -1.634179
 H         3.834606        -0.274529        -2.113574
 H         2.041284         2.419481         0.113623
