19
Iteration:  2668charge 0 multiplicity 1
 C        -0.028197        -0.265986        -0.286917
 C         1.400517         0.077350         0.158188
 C         2.062451        -0.458905         1.461892
 C         3.592060        -0.357919         0.935478
 C         3.275854         0.405560        -0.280929
 C         3.680957         1.278075        -1.441094
 O         2.414916         2.095147        -1.219820
 C         2.145572         1.451231        -0.016971
 O         2.279592        -0.504539        -0.835037
 H        -0.250935        -0.000127        -1.345544
 H        -0.308101        -1.244790         0.120368
 H        -0.800020         0.247895         0.311755
 H         1.748101         0.036851         2.437106
 H         1.850187        -1.523594         1.596127
 H         4.122240         0.228243         1.699271
 H         3.949974        -1.463385         0.900567
 H         4.630794         1.949692        -1.143625
 H         3.863779         0.761260        -2.392686
 H         2.077035         2.118885         0.834582
