19
Iteration:   524charge 0 multiplicity 1
 C        -0.072495        -0.251257        -0.074195
 C         1.364052         0.027147         0.156793
 C         2.041425        -0.688406         1.304367
 C         3.582392        -0.332387         0.941733
 C         3.244513         0.402547        -0.289456
 C         3.803009         1.420016        -1.334833
 O         2.457028         2.043970        -1.286711
 C         2.102796         1.475160         0.050225
 O         2.281237        -0.397712        -0.944039
 H        -0.448351        -1.211232         0.266731
 H        -0.613414         0.504677         0.505790
 H        -0.323659        -0.187626        -1.144189
 H         1.538150        -0.493707         2.255307
 H         1.810654        -1.786888         1.195660
 H         4.098850         0.244550         1.771172
 H         4.241714        -1.170462         0.766221
 H         4.689381         2.075588        -1.004758
 H         3.947842         0.876618        -2.316380
 H         2.004278         2.288657         0.833407
