19
Iteration:   207
 C        -0.169734        -0.228831        -0.156266
 C         1.374858         0.043128         0.058945
 C         2.064860        -0.636007         1.326092
 C         3.655724        -0.470312         0.955902
 C         3.329281         0.408904        -0.264575
 C         3.729672         1.460035        -1.340288
 O         2.363701         2.133165        -1.129397
 C         2.173424         1.378992         0.061550
 O         2.332887        -0.412791        -1.009165
 H        -0.609170         0.659583        -0.549243
 H        -0.345095        -1.081498        -0.837115
 H        -0.638382        -0.475681         0.844092
 H         1.760481        -0.359691         2.353958
 H         1.815395        -1.676767         1.254056
 H         4.222054        -0.077092         1.831798
 H         4.075030        -1.353213         0.652221
 H         4.348710         2.286471        -1.034476
 H         3.873702         1.083555        -2.358040
 H         2.003282         2.112816         0.858158
