19
Iteration:  4901
 C        -0.058954        -0.235593        -0.168441
 C         1.361905         0.230983         0.132506
 C         1.830506         0.332223         1.618733
 C         3.411121         0.181380         1.340562
 C         3.311083         0.299372        -0.207649
 C         3.881794         0.860740        -1.544895
 O         2.536960         1.501269        -1.781192
 C         2.179531         1.358827        -0.430654
 O         2.351464        -0.779127        -0.428684
 H        -0.250241        -1.207839         0.189596
 H        -0.671294         0.446052         0.478256
 H        -0.250746        -0.123797        -1.238224
 H         1.531415         1.266676         2.132447
 H         1.442277        -0.529402         2.101345
 H         3.947664         1.035922         1.686932
 H         3.858458        -0.809860         1.639769
 H         4.636054         1.737521        -1.714050
 H         4.007346         0.078756        -2.328538
 H         2.082946         2.295440         0.022550
