19
Iteration:  1770
 C        -0.156652        -0.149492        -0.104794
 C         1.329181        -0.030112         0.078470
 C         2.177814        -0.570693         1.454116
 C         3.616028        -0.235231         0.988211
 C         3.251475         0.399023        -0.391415
 C         3.831465         1.482071        -1.284406
 O         2.465519         2.096254        -1.208346
 C         2.083759         1.225681        -0.025328
 O         2.211877        -0.581976        -1.047735
 H        -0.420720        -1.112936         0.303476
 H        -0.792768         0.572187         0.442776
 H        -0.166216        -0.017167        -1.154637
 H         1.786284        -0.046966         2.425997
 H         1.794492        -1.662850         1.557716
 H         3.967690         0.614933         1.645569
 H         4.400172        -1.053428         1.088021
 H         4.659634         2.045096        -0.750245
 H         4.077476         1.110109        -2.310840
 H         1.802665         1.970761         0.757236
