19
Iteration:  2702
 C        -0.115172        -0.196111        -0.124375
 C         1.362501        -0.014765         0.103474
 C         2.070253        -0.518515         1.413870
 C         3.546271        -0.350444         1.040405
 C         3.322705         0.469777        -0.243423
 C         3.776266         1.291628        -1.341817
 O         2.404926         1.981127        -1.359422
 C         2.156934         1.474058        -0.047011
 O         2.288332        -0.433538        -0.925358
 H        -0.750998         0.496928        -0.696075
 H        -0.267069        -1.187842        -0.685858
 H        -0.449017        -0.300581         0.878380
 H         1.741111        -0.067983         2.407718
 H         1.792857        -1.605542         1.440446
 H         4.194524         0.284648         1.738181
 H         4.131498        -1.320480         0.867858
 H         4.414814         2.174072        -0.956648
 H         4.126600         0.798393        -2.305088
 H         2.081269         2.209699         0.743719
