19
Iteration:   491charge 0 multiplicity 1
 C        -0.161144        -0.212281        -0.201192
 C         1.400310         0.032359         0.093232
 C         2.052147        -0.615168         1.384637
 C         3.666639        -0.390904         1.008677
 C         3.295174         0.444021        -0.286463
 C         3.739073         1.413297        -1.311692
 O         2.406316         2.002504        -1.262392
 C         2.151295         1.456024         0.057917
 O         2.251545        -0.464396        -0.958937
 H        -0.285729        -1.203627        -0.530128
 H        -0.533181         0.052707         0.762029
 H        -0.465726         0.596866        -0.843441
 H         1.693608        -0.107829         2.290021
 H         2.021394        -1.713441         1.464750
 H         4.188759         0.223514         1.792386
 H         4.102097        -1.312492         0.710872
 H         4.530295         2.212589        -1.120601
 H         3.873209         1.073348        -2.384415
 H         2.169876         2.147152         0.951358
