19
Iteration:  4103
 C        -0.094403        -0.112218        -0.074329
 C         1.321571         0.211833         0.139197
 C         1.843143         0.107959         1.635169
 C         3.468868         0.305053         1.397232
 C         3.293942         0.481805        -0.058118
 C         3.843865         0.832314        -1.461948
 O         2.610530         1.326334        -1.930713
 C         2.127302         1.389180        -0.547606
 O         2.363282        -0.687868        -0.551781
 H        -0.399138        -0.817091         0.718490
 H        -0.809377         0.659976        -0.109994
 H        -0.197799        -0.736686        -0.942852
 H         1.334332         0.622441         2.351909
 H         1.544216        -0.963410         1.691105
 H         3.907452         1.169899         1.941262
 H         4.007912        -0.541464         1.727909
 H         4.707031         1.565277        -1.311949
 H         4.183953        -0.064580        -2.091917
 H         2.042825         2.383183        -0.125432
