19
Iteration:   756
 C        -0.139674        -0.153578        -0.099512
 C         1.375177         0.046294         0.116464
 C         2.124469        -0.636418         1.377712
 C         3.586256        -0.415386         1.060859
 C         3.289194         0.450215        -0.309041
 C         3.695445         1.567931        -1.358702
 O         2.439480         2.116290        -1.324715
 C         2.154065         1.388091        -0.024637
 O         2.275237        -0.632623        -0.941797
 H        -0.278240        -1.253489        -0.090813
 H        -0.812037         0.388020         0.598854
 H        -0.344734         0.216334        -1.119396
 H         1.733006        -0.328998         2.370772
 H         1.739185        -1.686207         1.286411
 H         4.136542         0.011169         1.909794
 H         4.158817        -1.373489         0.865164
 H         4.416825         2.072709        -0.790644
 H         4.142148         1.259014        -2.258077
 H         2.198437         2.100315         0.823172
