19
Iteration:  4174charge 0 multiplicity 1
 C        -0.004696        -0.217770        -0.187721
 C         1.287601         0.162938         0.146380
 C         1.794947         0.334562         1.562731
 C         3.478954         0.235226         1.312620
 C         3.309739         0.356060        -0.194839
 C         3.818971         0.823514        -1.538821
 O         2.586961         1.483438        -1.768551
 C         2.151982         1.315378        -0.420908
 O         2.355543        -0.745427        -0.404215
 H        -0.499994        -0.991082         0.353284
 H        -0.666301         0.713877        -0.057419
 H        -0.192012        -0.479382        -1.237943
 H         1.372415         1.320172         2.003719
 H         1.510282        -0.493150         2.196049
 H         4.130923         0.939645         1.822520
 H         4.011082        -0.759021         1.539459
 H         4.616839         1.573045        -1.470981
 H         4.067031         0.018809        -2.210458
 H         2.072376         2.309461         0.166334
