19
Iteration:   553charge 0 multiplicity 1
 C        -0.113063        -0.210609        -0.105494
 C         1.342559         0.041700         0.049472
 C         2.038380        -0.547716         1.394972
 C         3.676424        -0.382863         0.984956
 C         3.281391         0.319662        -0.344280
 C         3.769435         1.519434        -1.367698
 O         2.443488         2.225520        -1.170214
 C         2.094442         1.314939         0.006765
 O         2.303007        -0.624371        -0.978428
 H        -0.532095        -1.072946         0.533058
 H        -0.791994         0.641984         0.247568
 H        -0.472696        -0.442419        -1.148939
 H         1.647808         0.037861         2.312722
 H         1.662027        -1.538152         1.381406
 H         4.017385         0.325132         1.779354
 H         4.384888        -1.189374         0.894002
 H         4.621632         2.055005        -1.067719
 H         3.906820         1.109185        -2.374698
 H         2.086490         1.909338         0.888770
