19
Iteration:    50
 C        -0.165758        -0.245852        -0.219887
 C         1.336319         0.009619         0.090559
 C         2.110024        -0.736998         1.262047
 C         3.624380        -0.397068         0.842807
 C         3.250972         0.452446        -0.369765
 C         3.709128         1.499801        -1.398760
 O         2.490457         2.331526        -0.924042
 C         2.164262         1.328272         0.138311
 O         2.257645        -0.551078        -0.948653
 H        -0.553960        -1.022363         0.533152
 H        -0.822598         0.646583        -0.234780
 H        -0.149405        -0.763471        -1.198625
 H         1.858261        -0.319985         2.286679
 H         1.859125        -1.861817         1.222763
 H         4.130329         0.152949         1.663728
 H         4.202228        -1.351554         0.604857
 H         4.680944         2.028084        -1.200845
 H         3.765078         1.318614        -2.518671
 H         2.252612         1.882302         1.164677
