19
Iteration:  3413charge 0 multiplicity 1
 C        -0.141863        -0.048051        -0.111314
 C         1.313812         0.097513         0.144946
 C         1.914023        -0.119833         1.535415
 C         3.498420         0.115016         1.263548
 C         3.275318         0.367619        -0.233614
 C         3.974475         1.148441        -1.461064
 O         2.458120         1.547848        -1.742069
 C         2.124375         1.287216        -0.251875
 O         2.351769        -0.697475        -0.635662
 H        -0.341998        -0.900054        -0.748655
 H        -0.708981        -0.183436         0.822283
 H        -0.396851         0.894444        -0.715700
 H         1.605971         0.629154         2.238865
 H         1.777713        -1.276643         1.940069
 H         3.791847         0.944823         1.915175
 H         4.265452        -0.608104         1.432766
 H         4.449513         1.969636        -1.030751
 H         4.528654         0.566115        -2.299366
 H         2.113764         2.263121         0.341490
