19
Iteration:  1255charge 0 multiplicity 1
 C         0.001111        -0.220687        -0.269310
 C         1.411013         0.035233         0.205661
 C         2.042665        -0.606316         1.414089
 C         3.545158        -0.384435         0.965926
 C         3.269540         0.414519        -0.276417
 C         3.653955         1.413216        -1.449221
 O         2.462811         2.153812        -1.222117
 C         2.128310         1.372478         0.081352
 O         2.298780        -0.490479        -0.877297
 H        -0.327474        -1.293687        -0.180323
 H        -0.683494         0.280470         0.434795
 H        -0.169807         0.171965        -1.313986
 H         1.568913        -0.175632         2.345007
 H         1.868238        -1.669599         1.334813
 H         4.239781         0.076044         1.701454
 H         3.961090        -1.254160         0.492581
 H         4.541263         2.131907        -1.309515
 H         3.629685         0.890556        -2.369994
 H         2.113086         2.054589         0.893101
