19
Iteration:  2756charge 0 multiplicity 1
 C        -0.151832        -0.159933        -0.102394
 C         1.310586        -0.015603         0.076198
 C         2.071293        -0.520764         1.437471
 C         3.637589        -0.214900         1.053493
 C         3.220373         0.363380        -0.381748
 C         3.781137         1.372196        -1.284918
 O         2.512057         2.011979        -1.319356
 C         2.047384         1.367385        -0.075153
 O         2.316567        -0.565919        -0.917878
 H        -0.664737         0.841205         0.060846
 H        -0.332702        -0.540850        -1.178733
 H        -0.472763        -0.763963         0.734631
 H         1.718166         0.160413         2.235862
 H         1.859493        -1.576748         1.540648
 H         4.105066         0.576471         1.705977
 H         4.290184        -1.145957         1.101663
 H         4.724552         2.040671        -1.052867
 H         3.990544         1.006105        -2.342009
 H         2.070722         2.064997         0.803437
