19
Iteration:  1705charge 0 multiplicity 1
 C        -0.049655        -0.272341        -0.192531
 C         1.381975         0.016116         0.120311
 C         2.119340        -0.591061         1.415846
 C         3.562046        -0.402676         1.012093
 C         3.319114         0.480781        -0.234097
 C         3.692964         1.298646        -1.410717
 O         2.396155         2.053963        -1.333686
 C         2.114378         1.437715         0.069451
 O         2.293121        -0.340607        -0.904376
 H        -0.301984        -1.250348        -0.668756
 H        -0.762135        -0.062941         0.673654
 H        -0.384854         0.544093        -0.844285
 H         1.726921         0.028316         2.306331
 H         1.982207        -1.687894         1.640206
 H         4.094709         0.059033         1.941492
 H         3.986650        -1.440659         0.529152
 H         4.575034         2.009104        -1.174520
 H         3.756281         0.734480        -2.387594
 H         2.162827         2.162389         0.922825
