19
Iteration:  3514charge 0 multiplicity 1
 C        -0.147407        -0.185761        -0.214959
 C         1.344906         0.065648         0.103280
 C         1.969011         0.086894         1.587342
 C         3.495845         0.143789         1.235391
 C         3.187867         0.353939        -0.226730
 C         3.806882         0.979871        -1.528330
 O         2.635979         1.740475        -1.651226
 C         2.098381         1.328202        -0.320320
 O         2.342251        -0.778796        -0.515623
 H        -0.611488         0.644774        -0.800600
 H        -0.168804        -1.130961        -0.775008
 H        -0.577466        -0.322840         0.735077
 H         1.593329         0.909244         2.222548
 H         1.622842        -0.891738         2.129610
 H         4.035816         0.903169         1.728772
 H         3.995278        -0.783824         1.484790
 H         4.654221         1.601777        -1.274450
 H         4.067109         0.276919        -2.305907
 H         2.221979         2.223468         0.387357
