19
Iteration:  3232charge 0 multiplicity 1
 C        -0.030728        -0.216682        -0.249038
 C         1.361569         0.153123         0.140334
 C         1.979676        -0.233095         1.568706
 C         3.509209        -0.060920         1.275974
 C         3.262782         0.437824        -0.177626
 C         3.767841         0.981564        -1.554311
 O         2.465353         1.803638        -1.551448
 C         2.171813         1.464830        -0.267971
 O         2.324024        -0.563732        -0.655352
 H        -0.514488         0.592972        -0.925116
 H        -0.158112        -1.172330        -0.799833
 H        -0.745235        -0.287462         0.604605
 H         1.717345         0.322393         2.511266
 H         1.665090        -1.217728         1.731444
 H         4.116111         0.673514         1.863627
 H         4.030021        -1.084438         1.267224
 H         4.614474         1.650617        -1.431947
 H         3.945400         0.231995        -2.285156
 H         1.982206         2.234675         0.433936
