19
Iteration:  3451charge 0 multiplicity 1
 C        -0.075623        -0.190755        -0.101570
 C         1.321454         0.160734         0.114035
 C         1.947823        -0.093352         1.521275
 C         3.529010        -0.017920         1.365612
 C         3.264351         0.499251        -0.188968
 C         3.901330         0.929716        -1.468652
 O         2.508930         1.623524        -1.775912
 C         2.084326         1.433646        -0.322950
 O         2.336783        -0.577327        -0.618774
 H        -0.240745        -0.738895        -1.050674
 H        -0.427217        -0.826456         0.740303
 H        -0.803638         0.600456        -0.070046
 H         1.445669         0.645636         2.291676
 H         1.646928        -1.077580         1.853856
 H         4.028898         0.773262         1.950225
 H         3.884884        -1.078037         1.467440
 H         4.654406         1.784497        -1.445012
 H         4.238132         0.246664        -2.172716
 H         1.920981         2.369686         0.210137
