19
Iteration:  1667charge 0 multiplicity 1
 C        -0.137247        -0.245548        -0.222826
 C         1.368297        -0.022098         0.029837
 C         2.109683        -0.442090         1.430747
 C         3.610668        -0.263193         1.014441
 C         3.255191         0.315706        -0.375974
 C         3.692958         1.385753        -1.382798
 O         2.432400         2.182307        -1.171601
 C         2.221062         1.329729         0.041951
 O         2.222037        -0.584212        -0.897423
 H        -0.230786        -1.250411        -0.568142
 H        -0.653573        -0.007132         0.677985
 H        -0.522480         0.354868        -1.065019
 H         1.969949         0.062070         2.451056
 H         1.966853        -1.517651         1.489306
 H         4.240300         0.363240         1.555700
 H         3.971800        -1.190515         1.051556
 H         4.548106         1.937271        -1.012471
 H         3.935621         1.219656        -2.423862
 H         2.395823         1.868474         1.018413
