19
Iteration:  1641
 C        -0.087328        -0.158224        -0.038179
 C         1.369761        -0.029061         0.034395
 C         1.995855        -0.578012         1.410350
 C         3.610074        -0.246499         0.965412
 C         3.268610         0.397317        -0.282686
 C         3.716975         1.415533        -1.303409
 O         2.485563         2.068352        -1.227188
 C         2.061918         1.314478        -0.020713
 O         2.337509        -0.529501        -1.027472
 H        -0.276231        -1.278845        -0.079930
 H        -0.535494         0.534912         0.776074
 H        -0.468981         0.149027        -1.045603
 H         1.954140         0.061123         2.262487
 H         1.752396        -1.639613         1.618103
 H         4.153953         0.417464         1.715461
 H         4.148215        -1.300231         0.817840
 H         4.567589         2.076864        -1.183065
 H         3.904466         1.076155        -2.358162
 H         1.946192         2.000930         0.859731
