19
Iteration:  2746charge 0 multiplicity 1
 C        -0.171255        -0.193449        -0.040159
 C         1.325984         0.041863         0.003770
 C         2.087833        -0.538062         1.445253
 C         3.610622        -0.185600         1.071076
 C         3.303798         0.368841        -0.292491
 C         3.817338         1.408647        -1.335337
 O         2.460720         2.059851        -1.349564
 C         2.146353         1.324934        -0.114577
 O         2.257636        -0.621289        -0.943862
 H        -0.529677         0.853539        -0.135380
 H        -0.706751        -0.589272        -0.982431
 H        -0.722048        -0.653711         0.734221
 H         1.674393        -0.061885         2.390042
 H         1.803084        -1.603465         1.626558
 H         4.049003         0.530993         1.874220
 H         4.289060        -1.082843         0.963029
 H         4.552117         1.960216        -0.568392
 H         4.169937         1.104905        -2.382361
 H         2.027167         1.900909         0.808100
