19
Iteration:   385
 C        -0.140297        -0.237361        -0.017941
 C         1.343662         0.135208         0.140399
 C         2.045516        -0.586196         1.290416
 C         3.532479        -0.424954         1.024614
 C         3.281918         0.473254        -0.252496
 C         3.820894         1.463282        -1.295331
 O         2.411334         1.973412        -1.319130
 C         2.144503         1.445201        -0.031440
 O         2.387157        -0.498780        -0.991729
 H        -0.253876        -1.081701        -0.799190
 H        -0.702772        -0.601729         0.890628
 H        -0.781293         0.577198        -0.473628
 H         1.639098        -0.287911         2.278709
 H         1.727650        -1.679684         1.193013
 H         4.139805         0.095723         1.798141
 H         4.238669        -1.319225         0.806652
 H         4.422289         2.290379        -0.989298
 H         4.028162         1.048456        -2.259537
 H         1.972787         2.253672         0.720729
