19
Iteration:   741
 C        -0.007685        -0.217231        -0.130195
 C         1.425831         0.079683         0.084686
 C         1.991351        -0.613347         1.382691
 C         3.557784        -0.426728         0.965241
 C         3.327794         0.456035        -0.218543
 C         3.767817         1.416458        -1.338122
 O         2.359078         2.061108        -1.298558
 C         2.135065         1.419450        -0.012162
 O         2.274524        -0.459783        -0.896934
 H        -0.174121        -1.317595        -0.351218
 H        -0.443079        -0.022904         0.915702
 H        -0.472567         0.419884        -0.936642
 H         1.789201        -0.210634         2.364369
 H         1.772364        -1.713746         1.316436
 H         4.195736         0.024800         1.730304
 H         3.922555        -1.377649         0.555126
 H         4.523241         2.228482        -1.182520
 H         3.902101         0.985211        -2.380195
 H         2.015267         2.104721         0.788640
