19
Iteration:  3809charge 0 multiplicity 1
 C        -0.180781        -0.159023        -0.151999
 C         1.348909         0.119506         0.100793
 C         1.891562         0.218949         1.629249
 C         3.440514         0.226206         1.318636
 C         3.345200         0.443230        -0.175629
 C         3.864516         0.882265        -1.435867
 O         2.635663         1.438709        -1.826921
 C         2.119395         1.352086        -0.385129
 O         2.333930        -0.776292        -0.531812
 H        -0.626934         0.832295         0.136284
 H        -0.321395        -0.246972        -1.264901
 H        -0.507825        -1.068666         0.357246
 H         1.520078         1.178749         2.026689
 H         1.519665        -0.660224         2.316047
 H         3.884970         1.004615         1.905111
 H         3.868446        -0.696560         1.529502
 H         4.584818         1.694985        -1.406894
 H         4.154733         0.103637        -2.151886
 H         2.013598         2.336847        -0.019543
