19
Iteration:  1079charge 0 multiplicity 1
 C        -0.074931        -0.160155        -0.126088
 C         1.425440         0.009863         0.052469
 C         2.097974        -0.534623         1.360687
 C         3.565285        -0.408413         1.011220
 C         3.292448         0.421026        -0.243851
 C         3.762717         1.374467        -1.328479
 O         2.416241         2.073055        -1.216268
 C         2.080886         1.321019         0.048245
 O         2.252736        -0.419694        -1.014936
 H        -0.096036        -1.237531        -0.233302
 H        -0.749024         0.230688         0.643424
 H        -0.301955         0.239310        -1.105850
 H         1.923291        -0.034757         2.327393
 H         1.855198        -1.683285         1.430939
 H         4.157376         0.161348         1.705290
 H         4.127413        -1.316661         0.767933
 H         4.412025         2.251639        -1.204720
 H         3.997611         0.762707        -2.241169
 H         1.716871         2.007101         0.813040
