19
Iteration:  3195charge 0 multiplicity 1
 C        -0.153506        -0.320102        -0.163599
 C         1.341387         0.135620         0.096386
 C         2.025546        -0.112223         1.604861
 C         3.525598        -0.093733         1.220581
 C         3.286041         0.317314        -0.281388
 C         3.853412         1.091509        -1.422885
 O         2.498534         1.881532        -1.523712
 C         2.149225         1.401107        -0.287022
 O         2.267896        -0.615632        -0.725035
 H        -0.192739        -0.339834        -1.243737
 H        -0.426779        -1.286255         0.298372
 H        -0.725109         0.555616         0.220587
 H         1.764605         0.699813         2.212074
 H         1.557672        -1.120503         1.927224
 H         4.148561         0.537061         1.844962
 H         3.957943        -1.057077         1.194242
 H         4.627101         1.896928        -1.126903
 H         4.091498         0.602421        -2.457440
 H         2.148265         2.320245         0.398713
