19
Iteration:   995charge 0 multiplicity 1
 C        -0.157304        -0.166338        -0.156902
 C         1.375066        -0.022501         0.049286
 C         2.104979        -0.477943         1.400075
 C         3.603673        -0.393087         1.014430
 C         3.281703         0.327594        -0.307376
 C         3.732796         1.461728        -1.359527
 O         2.387897         2.106600        -1.120816
 C         2.138727         1.324483        -0.034952
 O         2.345338        -0.537324        -1.000083
 H        -0.560307        -1.203252        -0.059825
 H        -0.731349         0.412646         0.558448
 H        -0.427606         0.170272        -1.169822
 H         1.915336         0.163653         2.251912
 H         1.725006        -1.431532         1.662697
 H         4.191606         0.221344         1.720501
 H         4.181866        -1.241117         0.715684
 H         4.511283         2.197099        -1.078193
 H         3.902020         1.157331        -2.388560
 H         2.151198         1.902372         0.955045
