19
Iteration:  1174
 C        -0.132718        -0.213957        -0.040897
 C         1.370137         0.108238         0.046214
 C         2.032575        -0.697502         1.303368
 C         3.581490        -0.373789         1.002313
 C         3.311731         0.468200        -0.174399
 C         3.720061         1.451227        -1.384206
 O         2.479679         2.012764        -1.283245
 C         2.096220         1.418145        -0.020306
 O         2.323000        -0.455645        -0.915471
 H        -0.291284        -1.324896         0.001173
 H        -0.631490         0.371626         0.818643
 H        -0.524987         0.216147        -0.987488
 H         1.429699        -0.397717         2.101960
 H         1.897578        -1.775007         1.080199
 H         4.252206         0.173054         1.718862
 H         4.200629        -1.348109         0.714115
 H         4.438306         2.178869        -1.026196
 H         4.181539         1.030333        -2.321051
 H         1.997884         2.146939         0.788925
