19
Iteration:  4258charge 0 multiplicity 1
 C        -0.166234        -0.044744        -0.054768
 C         1.370266         0.066351         0.086154
 C         1.799945         0.224525         1.617109
 C         3.445300         0.295101         1.432624
 C         3.336604         0.277979        -0.159172
 C         3.877813         0.935062        -1.501067
 O         2.622100         1.461583        -1.963238
 C         2.100445         1.337191        -0.539329
 O         2.392768        -0.847317        -0.422525
 H        -0.387078        -1.054118        -0.485770
 H        -0.568987         0.143239         0.864330
 H        -0.388181         0.800588        -0.725451
 H         1.197867         0.926329         2.091176
 H         1.577732        -0.703765         2.075347
 H         3.914932         1.214940         1.722348
 H         4.065000        -0.514878         1.874787
 H         4.577203         1.714175        -0.989849
 H         4.398134         0.288853        -2.194631
 H         1.761484         2.329417        -0.155093
