19
Iteration:  4644charge 0 multiplicity 1
 C        -0.097863        -0.195970        -0.107822
 C         1.271409         0.186898         0.195175
 C         1.885864         0.184831         1.635976
 C         3.397860         0.230534         1.323223
 C         3.351515         0.503731        -0.165043
 C         3.958389         0.750351        -1.487723
 O         2.575156         1.395706        -1.861470
 C         2.152053         1.378829        -0.469624
 O         2.297065        -0.614793        -0.488026
 H        -0.059609        -1.303116        -0.239213
 H        -0.857466        -0.103700         0.664329
 H        -0.446414         0.234835        -1.089504
 H         1.689367         1.184162         2.109432
 H         1.497770        -0.726812         2.151960
 H         3.915943         1.091525         1.771703
 H         3.870728        -0.732607         1.342625
 H         4.941910         1.383403        -1.616913
 H         4.028419        -0.228162        -2.073600
 H         1.983712         2.322746        -0.027059
