19
Iteration:  1817
 C        -0.002249        -0.296308        -0.205157
 C         1.402146         0.097742         0.158894
 C         2.053713        -0.574975         1.367574
 C         3.479575        -0.459254         1.050834
 C         3.336147         0.427048        -0.241386
 C         3.685975         1.433087        -1.516523
 O         2.428102         2.100661        -1.237558
 C         2.116756         1.416561        -0.008491
 O         2.296071        -0.429482        -0.849009
 H        -0.118486        -1.334390         0.095299
 H        -0.730257         0.245269         0.431747
 H        -0.021462         0.048108        -1.268436
 H         1.842049        -0.073397         2.331576
 H         1.825654        -1.632106         1.539035
 H         4.089679        -0.101198         1.938940
 H         3.937499        -1.557644         0.761492
 H         4.494999         2.254104        -1.497468
 H         3.620715         0.860429        -2.493324
 H         2.152801         2.141681         0.775627
