19
Iteration:  3101
 C        -0.034393        -0.163691        -0.247180
 C         1.388873         0.138845         0.106411
 C         1.981486        -0.286182         1.544059
 C         3.549328        -0.089796         1.165536
 C         3.266396         0.356057        -0.244941
 C         3.702927         1.094648        -1.516388
 O         2.464962         1.832413        -1.492123
 C         2.138850         1.454540        -0.065945
 O         2.313870        -0.598589        -0.725895
 H        -0.509151        -0.899962         0.448966
 H        -0.461034         0.813063        -0.337839
 H         0.092219        -0.610045        -1.249219
 H         1.571162         0.253871         2.509265
 H         1.816436        -1.361360         1.594329
 H         3.929744         0.638043         1.916125
 H         4.215134        -1.032072         1.137066
 H         4.484310         1.747673        -1.232188
 H         3.921742         0.600527        -2.441476
 H         2.101561         2.155834         0.737723
