19
Iteration:  3815charge 0 multiplicity 1
 C        -0.192638        -0.103515        -0.117672
 C         1.326934         0.067837         0.118213
 C         1.901392         0.205501         1.600938
 C         3.418334         0.274874         1.316629
 C         3.338866         0.401294        -0.163025
 C         3.954957         0.889149        -1.430569
 O         2.576531         1.446240        -1.802489
 C         2.126199         1.368405        -0.458415
 O         2.342924        -0.806261        -0.544717
 H        -0.592146         0.765398         0.378254
 H        -0.186625        -0.145396        -1.202448
 H        -0.527240        -1.125242         0.174341
 H         1.374033         1.119745         1.920500
 H         1.564087        -0.582758         2.255743
 H         4.007826         1.060009         1.878270
 H         3.869025        -0.758186         1.620416
 H         4.640303         1.781157        -1.314006
 H         4.244070         0.068046        -2.138535
 H         1.959673         2.409905         0.076753
