19
Iteration:  2522charge 0 multiplicity 1
 C        -0.138806        -0.226991        -0.241837
 C         1.324228        -0.039232         0.109483
 C         2.065060        -0.405366         1.511785
 C         3.613265        -0.307725         1.034957
 C         3.288070         0.394332        -0.359572
 C         3.706911         1.330775        -1.458492
 O         2.452357         2.177677        -1.163969
 C         2.192770         1.371427        -0.047798
 O         2.304870        -0.649401        -0.880770
 H        -0.491290         0.407206        -1.035019
 H        -0.375109        -1.241132        -0.603148
 H        -0.833245        -0.035074         0.651750
 H         1.710336         0.421405         2.071247
 H         1.735592        -1.438716         1.769128
 H         3.951812         0.496606         1.735033
 H         4.210084        -1.171463         1.012259
 H         4.579282         2.013770        -1.446486
 H         3.931817         0.835424        -2.420864
 H         2.394287         1.957535         0.898460
