19
Iteration:  4464
 C        -0.135239        -0.289047        -0.163933
 C         1.328869         0.149899         0.140069
 C         1.905616         0.285623         1.561617
 C         3.464658         0.321545         1.382318
 C         3.317155         0.304735        -0.173941
 C         3.842883         0.856723        -1.570721
 O         2.651904         1.601071        -1.810530
 C         2.208791         1.286147        -0.423823
 O         2.227033        -0.760433        -0.438911
 H        -0.791994        -0.678670         0.648125
 H        -0.746528         0.541590        -0.481578
 H        -0.203153        -0.999333        -0.971424
 H         1.625438         1.179885         2.200032
 H         1.649207        -0.695949         2.102263
 H         3.767978         1.226220         1.793714
 H         4.022213        -0.500513         1.840161
 H         4.913202         1.445759        -1.562752
 H         3.903786         0.024828        -2.305916
 H         2.156679         2.102988         0.199351
