19
Iteration:  4191charge 0 multiplicity 1
 C        -0.146227        -0.258760        -0.250531
 C         1.374525         0.229465         0.156892
 C         1.855635         0.251035         1.709132
 C         3.446399         0.194792         1.355284
 C         3.283075         0.448034        -0.168504
 C         3.893904         0.756922        -1.572425
 O         2.572574         1.492290        -1.881113
 C         2.176049         1.452135        -0.425105
 O         2.333592        -0.728817        -0.365955
 H        -0.139608        -1.344093         0.091667
 H        -1.003661         0.261103         0.075684
 H        -0.109660        -0.299807        -1.361190
 H         1.620450         1.084580         2.298084
 H         1.526564        -0.698785         2.201574
 H         4.066760         0.923911         1.894363
 H         3.756722        -0.782869         1.687913
 H         4.776847         1.469764        -1.684646
 H         3.883364        -0.088078        -2.291017
 H         2.075174         2.463233        -0.121557
