19
Iteration:  1643charge 0 multiplicity 1
 C        -0.090618        -0.167781        -0.042906
 C         1.352098        -0.019989         0.058875
 C         2.004270        -0.579278         1.409255
 C         3.614872        -0.251067         0.968055
 C         3.280786         0.384791        -0.301305
 C         3.719783         1.419210        -1.306922
 O         2.488596         2.074872        -1.212422
 C         2.063080         1.322747        -0.028375
 O         2.334574        -0.543976        -1.033357
 H        -0.266164        -1.248440        -0.146351
 H        -0.551847         0.505029         0.762009
 H        -0.421465         0.180656        -1.067302
 H         1.884353         0.170245         2.263227
 H         1.742390        -1.626396         1.688088
 H         4.086586         0.390023         1.683646
 H         4.193331        -1.202261         0.842622
 H         4.552506         2.056190        -1.205448
 H         3.887814         1.109093        -2.372977
 H         1.937033         1.972147         0.895670
