19
Iteration:  2803charge 0 multiplicity 1
 C        -0.043426        -0.245553        -0.243180
 C         1.352280         0.146146         0.187144
 C         2.008916        -0.442868         1.481861
 C         3.493087        -0.410627         1.072054
 C         3.364914         0.394774        -0.244546
 C         3.653751         1.322258        -1.526065
 O         2.400923         1.990785        -1.350492
 C         2.218303         1.450622         0.000038
 O         2.355382        -0.494549        -0.817527
 H        -0.791420        -0.110690         0.502402
 H        -0.148968         0.403250        -1.115791
 H        -0.052346        -1.303687        -0.572498
 H         1.786291         0.171352         2.377078
 H         1.637257        -1.524460         1.565757
 H         4.120170         0.274866         1.808146
 H         3.996704        -1.352072         0.987064
 H         4.511871         2.072237        -1.325919
 H         3.841640         0.793298        -2.507208
 H         1.970768         2.167833         0.739810
