19
Iteration:  4954
 C        -0.159509        -0.140881        -0.049420
 C         1.331434         0.172433         0.165446
 C         1.889664         0.056014         1.588341
 C         3.395235         0.327112         1.353593
 C         3.289007         0.399334        -0.200783
 C         3.940343         0.856489        -1.487111
 O         2.635314         1.470549        -1.956524
 C         2.121467         1.353684        -0.453898
 O         2.337125        -0.722511        -0.453807
 H        -0.482427        -0.548052         0.868480
 H        -0.734233         0.783058        -0.167210
 H        -0.289245        -0.838311        -0.847433
 H         1.372828         0.626781         2.444794
 H         1.729578        -0.990147         1.959354
 H         3.888761         1.094320         1.897155
 H         3.937145        -0.627833         1.436582
 H         4.436113         1.762632        -1.212816
 H         4.361583         0.209558        -2.249252
 H         2.083124         2.351047        -0.074994
