19
Iteration:  4396charge 0 multiplicity 1
 C        -0.128074        -0.072266        -0.152571
 C         1.333858         0.216504         0.108928
 C         1.924615         0.174024         1.625954
 C         3.456546         0.237554         1.292574
 C         3.294887         0.342653        -0.175345
 C         3.872581         0.999438        -1.412490
 O         2.560880         1.341860        -1.901553
 C         2.128022         1.292690        -0.434906
 O         2.335978        -0.781373        -0.433577
 H        -0.728593        -0.388439         0.758890
 H        -0.651976         0.766632        -0.521999
 H        -0.271951        -0.861435        -0.937759
 H         1.604879         0.947007         2.339579
 H         1.537231        -0.848232         2.003994
 H         3.917337         1.150544         1.736096
 H         4.013388        -0.590975         1.684234
 H         4.535587         1.955781        -1.078281
 H         4.449448         0.329461        -2.120610
 H         2.206368         2.356818        -0.240248
