19
Iteration:  4498charge 0 multiplicity 1
 C        -0.044035        -0.183928        -0.200959
 C         1.380593         0.121685         0.127687
 C         1.913944         0.266961         1.550461
 C         3.460090         0.323779         1.272879
 C         3.219777         0.349988        -0.163551
 C         3.830105         0.774643        -1.460069
 O         2.590857         1.561524        -1.799990
 C         2.089428         1.312305        -0.437590
 O         2.320181        -0.800017        -0.396475
 H        -0.494663        -0.957231         0.418935
 H        -0.545047         0.796293        -0.066469
 H        -0.194919        -0.370528        -1.247108
 H         1.707909         1.171784         2.221356
 H         1.602680        -0.616664         2.125811
 H         3.971695         1.149173         1.657186
 H         3.915485        -0.595350         1.661367
 H         4.750616         1.519499        -1.244215
 H         4.029782         0.000454        -2.236476
 H         2.030775         2.211919         0.078133
