19
Iteration:  2646
 C        -0.074312        -0.188411        -0.225314
 C         1.382713         0.002730         0.108601
 C         2.067459        -0.443349         1.422050
 C         3.604949        -0.296242         1.063100
 C         3.297948         0.371423        -0.311178
 C         3.640491         1.385846        -1.441359
 O         2.444720         2.110539        -1.205173
 C         2.192862         1.325436         0.021607
 O         2.257255        -0.609607        -0.932087
 H        -0.093633        -0.358675        -1.326487
 H        -0.486636        -0.979161         0.393946
 H        -0.843563         0.523537        -0.038480
 H         1.840765         0.222230         2.313791
 H         1.566663        -1.344874         1.696907
 H         4.134715         0.435113         1.700268
 H         4.279560        -1.228786         0.870813
 H         4.508337         2.085791        -1.079049
 H         3.820316         0.980088        -2.444623
 H         2.241812         1.865136         0.953606
