19
Iteration:  2135charge 0 multiplicity 1
 C        -0.113491        -0.251764        -0.123124
 C         1.348122         0.100252         0.112161
 C         2.073846        -0.593748         1.333595
 C         3.622217        -0.295156         0.994260
 C         3.282617         0.451515        -0.230273
 C         3.730374         1.310924        -1.348147
 O         2.435865         1.994171        -1.310149
 C         2.123902         1.464012         0.013506
 O         2.266928        -0.448644        -0.920934
 H        -0.292053        -1.256403        -0.516856
 H        -0.699851         0.179247         0.707133
 H        -0.350729         0.315752        -1.045740
 H         1.726602        -0.253070         2.408056
 H         1.819344        -1.677111         1.397249
 H         4.110486         0.335800         1.796625
 H         4.314306        -1.205153         1.040933
 H         4.681870         1.853785        -1.250752
 H         3.833406         0.688305        -2.251005
 H         2.342522         2.170585         0.880244
