19
Iteration:   661charge 0 multiplicity 1
 C        -0.175020        -0.174588        -0.092154
 C         1.379018         0.013384        -0.008121
 C         2.081655        -0.541278         1.339468
 C         3.605167        -0.260546         1.044292
 C         3.263539         0.308531        -0.324277
 C         3.797147         1.446529        -1.343457
 O         2.444971         2.128509        -1.228842
 C         2.084606         1.290678         0.037424
 O         2.286354        -0.590215        -0.956496
 H        -0.360752        -0.931039        -0.841412
 H        -0.534098        -0.353312         0.896777
 H        -0.507545         0.799811        -0.410592
 H         1.639976        -0.050648         2.241237
 H         1.987344        -1.565630         1.480571
 H         4.134940         0.482302         1.665941
 H         4.243915        -1.129410         1.037605
 H         4.632132         2.179901        -1.029512
 H         3.959163         1.176071        -2.411735
 H         2.212967         1.889690         0.988237
