19
Iteration:  3679
 C        -0.111114        -0.169012        -0.125285
 C         1.346205         0.145794         0.081677
 C         1.888173         0.047326         1.588596
 C         3.462093         0.167959         1.308392
 C         3.300749         0.457146        -0.158214
 C         3.962356         0.910612        -1.414674
 O         2.524707         1.411622        -1.772654
 C         2.156224         1.409064        -0.394120
 O         2.292388        -0.635368        -0.579211
 H        -0.402391        -1.106982        -0.642772
 H        -0.634733        -0.132114         0.852993
 H        -0.544036         0.652778        -0.717195
 H         1.548396         0.784120         2.259498
 H         1.609476        -0.905378         1.973381
 H         3.963232         0.941874         1.869722
 H         4.009995        -0.727063         1.497581
 H         4.632271         1.852268        -1.372724
 H         4.293094         0.222749        -2.190818
 H         1.945731         2.451845        -0.048018
