19
Iteration:  4292
 C        -0.220060        -0.204468        -0.132861
 C         1.313320         0.157838         0.082301
 C         1.835781         0.290525         1.607281
 C         3.533626         0.244116         1.300339
 C         3.276789         0.344569        -0.141733
 C         3.912399         0.873227        -1.433383
 O         2.620931         1.323564        -1.860925
 C         2.178738         1.403985        -0.395012
 O         2.336497        -0.695660        -0.487380
 H        -0.343051        -1.212705        -0.520650
 H        -0.804829        -0.134650         0.798233
 H        -0.715000         0.439641        -0.879144
 H         1.505193         1.220835         2.021359
 H         1.605703        -0.503780         2.216580
 H         3.950574         1.120161         1.732598
 H         4.026187        -0.722767         1.642411
 H         4.585397         1.824181        -1.326758
 H         4.411659         0.186395        -2.129807
 H         2.046193         2.492601        -0.136333
