19
Iteration:  2876charge 0 multiplicity 1
 C        -0.088248        -0.190970        -0.015572
 C         1.393559         0.040807         0.082758
 C         1.970230        -0.469993         1.409877
 C         3.501504        -0.188692         1.082397
 C         3.329793         0.334817        -0.297306
 C         3.776290         1.365388        -1.302688
 O         2.509042         1.977356        -1.479956
 C         2.116726         1.440253        -0.115581
 O         2.287707        -0.617473        -0.889019
 H        -0.242129        -1.298044         0.302435
 H        -0.578072         0.618894         0.649439
 H        -0.556833         0.044176        -0.990661
 H         1.704580         0.023261         2.332221
 H         1.613137        -1.481046         1.371903
 H         3.807904         0.489554         1.823738
 H         4.209626        -1.005440         1.115404
 H         4.585529         1.871946        -0.858918
 H         4.176976         0.926779        -2.207890
 H         2.080881         2.173735         0.721859
