19
Iteration:  1200
 C        -0.087121        -0.157557        -0.058806
 C         1.384838         0.037006         0.135712
 C         2.061942        -0.606324         1.375035
 C         3.551311        -0.390470         0.976327
 C         3.241855         0.341280        -0.301452
 C         3.837856         1.489118        -1.256497
 O         2.351061         2.111230        -1.270411
 C         2.115560         1.348274        -0.042525
 O         2.330015        -0.560759        -1.043999
 H        -0.422095        -1.174251         0.194673
 H        -0.594868         0.622015         0.513805
 H        -0.243471         0.054866        -1.134590
 H         1.614019         0.022781         2.176749
 H         1.712763        -1.667122         1.503611
 H         4.075408         0.337811         1.602093
 H         4.249127        -1.165537         0.844345
 H         4.419664         2.374042        -0.782511
 H         4.334152         1.191397        -2.165263
 H         2.225311         1.963263         0.832233
