19
Iteration:  2105charge 0 multiplicity 1
 C        -0.033263        -0.283370        -0.191389
 C         1.388339         0.043873         0.060073
 C         1.998877        -0.411519         1.489552
 C         3.609433        -0.347783         1.021372
 C         3.307520         0.326203        -0.337245
 C         3.701323         1.459001        -1.431123
 O         2.468694         2.101622        -1.203564
 C         2.134192         1.389043        -0.029620
 O         2.231579        -0.576236        -0.904266
 H        -0.289061        -1.154849        -0.816737
 H        -0.609951        -0.256280         0.727192
 H        -0.528508         0.563353        -0.605991
 H         1.628629         0.322335         2.262134
 H         1.803270        -1.480849         1.764329
 H         4.308871         0.379907         1.668089
 H         3.925991        -1.424068         0.930798
 H         4.741889         1.828542        -1.139607
 H         3.729294         0.960796        -2.435556
 H         2.352718         1.858666         0.884808
