19
Iteration:   606
 C        -0.071204        -0.220485        -0.190285
 C         1.373554         0.105875         0.166565
 C         2.083792        -0.621159         1.385168
 C         3.613960        -0.443512         0.960362
 C         3.368038         0.352780        -0.275893
 C         3.680342         1.473330        -1.413342
 O         2.425354         2.048494        -1.248185
 C         2.088440         1.460781        -0.007849
 O         2.265605        -0.468275        -0.829988
 H        -0.228598        -1.310358        -0.112591
 H        -0.890903         0.308757         0.303318
 H        -0.212040         0.111425        -1.223048
 H         1.810999        -0.196425         2.372847
 H         1.937208        -1.641506         1.258769
 H         4.117684         0.039349         1.784311
 H         4.040996        -1.402339         0.642559
 H         4.444878         2.158524        -1.051419
 H         3.953592         1.172936        -2.419178
 H         1.873730         2.295183         0.699465
