19
Iteration:  2527
 C        -0.182554        -0.236227        -0.234775
 C         1.368541        -0.021528         0.085597
 C         2.088507        -0.419066         1.506826
 C         3.596874        -0.279623         1.038384
 C         3.294984         0.379779        -0.369856
 C         3.701163         1.336093        -1.401588
 O         2.462803         2.180473        -1.177503
 C         2.195336         1.357128        -0.057618
 O         2.312499        -0.645210        -0.891659
 H        -0.375907         0.420710        -1.123643
 H        -0.417957        -1.304995        -0.383060
 H        -0.812786         0.045679         0.583491
 H         1.598430         0.399824         2.164370
 H         1.687790        -1.352703         1.879175
 H         4.231790         0.435089         1.585279
 H         4.125512        -1.311985         0.956243
 H         4.548971         2.026917        -1.319807
 H         3.638852         0.790841        -2.363679
 H         2.166681         1.993175         0.821865
