19
Iteration:  4398charge 0 multiplicity 1
 C        -0.149270        -0.074760        -0.154410
 C         1.330017         0.215193         0.104381
 C         1.920936         0.176259         1.637344
 C         3.466657         0.226624         1.305714
 C         3.314459         0.356726        -0.174060
 C         3.874535         1.007034        -1.417281
 O         2.570360         1.328811        -1.905256
 C         2.137523         1.321383        -0.452433
 O         2.326809        -0.786082        -0.434676
 H        -0.663697        -0.408665         0.809705
 H        -0.644207         0.763688        -0.555152
 H        -0.278354        -0.869245        -0.927667
 H         1.557509         0.924252         2.398760
 H         1.545438        -0.863854         2.021677
 H         3.889777         1.065452         1.767784
 H         4.070478        -0.584192         1.665205
 H         4.502685         1.907746        -1.100414
 H         4.397386         0.368099        -2.146432
 H         2.081730         2.344608        -0.198921
