19
Iteration:   639
 C        -0.142899        -0.168293        -0.095542
 C         1.409656         0.010471         0.086104
 C         2.052976        -0.669991         1.384106
 C         3.591575        -0.348260         1.036358
 C         3.343066         0.464039        -0.255027
 C         3.736186         1.360781        -1.315385
 O         2.387801         1.984168        -1.275952
 C         2.132955         1.381721         0.001754
 O         2.306872        -0.374284        -1.028298
 H        -0.241841        -1.092021        -0.651052
 H        -0.566123        -0.171755         0.889519
 H        -0.469819         0.652890        -0.710473
 H         1.620484        -0.177990         2.285736
 H         1.879623        -1.683872         1.554660
 H         4.050342         0.244759         1.834094
 H         4.269298        -1.184430         0.903972
 H         4.425968         2.200236        -1.153487
 H         3.932819         0.878730        -2.284787
 H         2.047592         2.317339         0.582039
