19
Iteration:   539
 C        -0.196335        -0.249548        -0.080755
 C         1.367254        -0.023294         0.061795
 C         2.073744        -0.679023         1.337865
 C         3.523247        -0.346264         1.029291
 C         3.298774         0.470067        -0.309320
 C         3.722139         1.463169        -1.363516
 O         2.477235         2.205407        -1.254130
 C         2.228910         1.409449        -0.042574
 O         2.283929        -0.571075        -0.895178
 H        -0.420577        -1.143755         0.473648
 H        -0.675807         0.631879         0.285220
 H        -0.432256        -0.312496        -1.127209
 H         1.904687        -0.276812         2.338050
 H         1.962397        -1.769225         1.273177
 H         4.088849         0.200758         1.734656
 H         3.967831        -1.374505         0.766094
 H         4.502815         2.132327        -0.961138
 H         3.966103         1.252443        -2.367398
 H         2.289380         2.087343         0.873068
