19
Iteration:  4732charge 0 multiplicity 1
 C        -0.142395        -0.209535        -0.163548
 C         1.361217         0.241400         0.087077
 C         1.898542         0.223427         1.582165
 C         3.456341         0.252195         1.319850
 C         3.275587         0.366048        -0.146512
 C         3.841357         0.741064        -1.509063
 O         2.600576         1.487303        -1.784518
 C         2.118113         1.436707        -0.350753
 O         2.353605        -0.724526        -0.481003
 H        -0.592805        -0.745027         0.687216
 H        -0.721503         0.592096        -0.548106
 H        -0.093234        -0.934590        -1.007834
 H         1.429830         1.060831         2.176664
 H         1.719710        -0.839466         1.948707
 H         3.893177         1.232841         1.584307
 H         4.093413        -0.581713         1.599433
 H         4.878325         1.282820        -1.532723
 H         3.934426        -0.143893        -2.212317
 H         2.038363         2.342042         0.215999
