19
Iteration:   837
 C        -0.064788        -0.303246        -0.188012
 C         1.306936         0.164540         0.153939
 C         2.078527        -0.644787         1.342320
 C         3.595921        -0.434261         0.955753
 C         3.322912         0.470155        -0.249113
 C         3.745033         1.426902        -1.397211
 O         2.391690         2.086002        -1.242093
 C         2.165525         1.491758         0.066159
 O         2.263132        -0.501535        -0.885157
 H        -0.391770        -1.114416         0.393355
 H        -0.744924         0.489297        -0.011430
 H         0.099910        -0.495777        -1.233165
 H         1.725414        -0.131529         2.261501
 H         1.910930        -1.719983         1.282247
 H         4.321673         0.002145         1.656419
 H         3.784738        -1.422267         0.606524
 H         4.658081         2.021475        -1.270341
 H         3.692018         0.732293        -2.273908
 H         2.208465         2.350798         0.918505
