19
Iteration:  3580
 C        -0.144229        -0.111236        -0.123099
 C         1.305230         0.164896         0.140429
 C         1.920034        -0.046419         1.614831
 C         3.466907         0.108841         1.295972
 C         3.299831         0.430981        -0.178374
 C         3.872500         0.998225        -1.443107
 O         2.561883         1.538573        -1.793386
 C         2.106972         1.363240        -0.429766
 O         2.385089        -0.714417        -0.554780
 H        -0.907903         0.164826         0.633047
 H        -0.438796         0.443231        -1.035476
 H        -0.321553        -1.142765        -0.284163
 H         1.576026         0.739220         2.298632
 H         1.598468        -1.055596         2.009589
 H         3.863802         0.963567         1.796612
 H         4.204334        -0.631534         1.490611
 H         4.549413         1.879445        -1.359024
 H         4.199250         0.266109        -2.143683
 H         2.150851         2.366507         0.129837
