19
Iteration:  2973charge 0 multiplicity 1
 C        -0.126348        -0.102393        -0.159842
 C         1.384691         0.036681         0.062472
 C         1.970250        -0.354847         1.511536
 C         3.562941        -0.140904         1.127186
 C         3.322683         0.371289        -0.256594
 C         3.781531         1.226853        -1.439205
 O         2.414474         1.903230        -1.418913
 C         2.150969         1.326609        -0.084377
 O         2.359171        -0.592735        -0.833507
 H        -0.420993         0.541256        -1.002307
 H        -0.498645        -1.144539        -0.416715
 H        -0.631958         0.041543         0.778121
 H         1.575089         0.258842         2.312617
 H         1.737006        -1.356944         1.653130
 H         4.042845         0.646164         1.642821
 H         4.206334        -1.019694         1.338426
 H         4.614951         1.904595        -1.224934
 H         3.934824         0.750015        -2.389940
 H         2.050469         2.149048         0.703777
