19
Iteration:  1906
 C        -0.079213        -0.210188        -0.010247
 C         1.322008         0.064416         0.036351
 C         1.996476        -0.582050         1.280794
 C         3.555649        -0.244210         1.014911
 C         3.319695         0.413976        -0.302196
 C         3.791846         1.388787        -1.345368
 O         2.484508         1.981046        -1.268891
 C         2.088955         1.393220         0.022008
 O         2.323484        -0.513902        -0.953704
 H        -0.528794        -1.105706        -0.413600
 H        -0.538463        -0.203140         0.947187
 H        -0.505413         0.605228        -0.619859
 H         1.486418        -0.232781         2.159081
 H         1.941039        -1.632699         1.276446
 H         4.077093         0.428145         1.754441
 H         4.147473        -1.229761         1.128881
 H         4.564389         2.138855        -0.950995
 H         4.093398         1.019378        -2.340629
 H         1.938908         2.156594         0.754261
