19
Iteration:  1943charge 0 multiplicity 1
 C        -0.093570        -0.277528        -0.199210
 C         1.403443         0.068662         0.184660
 C         2.046582        -0.567804         1.442561
 C         3.553808        -0.421089         0.997831
 C         3.231564         0.449898        -0.314488
 C         3.742143         1.409264        -1.411251
 O         2.457302         2.057674        -1.299208
 C         2.176299         1.447065         0.022291
 O         2.277985        -0.447625        -0.868036
 H        -0.106546        -1.417097        -0.217593
 H        -0.844169         0.362979         0.349651
 H        -0.162799         0.026695        -1.268557
 H         1.850871        -0.080936         2.384246
 H         1.900324        -1.664526         1.528998
 H         4.210644         0.088691         1.696009
 H         3.827310        -1.382684         0.743719
 H         4.569474         2.056831        -1.151576
 H         3.946733         0.818207        -2.317389
 H         1.865470         2.243647         0.757604
