19
Iteration:  3972
 C        -0.172047        -0.129763        -0.046402
 C         1.241554         0.216661         0.107612
 C         1.903128         0.151683         1.619490
 C         3.382145         0.359270         1.396492
 C         3.276479         0.429985        -0.184931
 C         4.047453         0.793286        -1.466410
 O         2.571118         1.313206        -1.944965
 C         2.124902         1.388489        -0.492408
 O         2.421284        -0.720716        -0.457013
 H        -0.387343        -1.157582        -0.274790
 H        -0.859715         0.117014         0.747195
 H        -0.397660         0.428109        -0.931558
 H         1.335310         0.729134         2.286186
 H         1.571295        -0.948721         1.791527
 H         3.811479         1.258790         1.891369
 H         3.876684        -0.524794         1.688601
 H         4.649630         1.714175        -1.278589
 H         4.528723         0.021470        -2.186878
 H         1.905937         2.444979        -0.016825
