19
Iteration:  1084charge 0 multiplicity 1
 C        -0.050164        -0.167322        -0.143200
 C         1.401771         0.037843         0.064622
 C         2.106469        -0.526270         1.404512
 C         3.578319        -0.429826         1.000430
 C         3.330549         0.418413        -0.244886
 C         3.730758         1.371193        -1.324726
 O         2.421897         2.101377        -1.212968
 C         2.036033         1.307771         0.060971
 O         2.264735        -0.477552        -1.043133
 H        -0.241435        -1.249408        -0.374127
 H        -0.684631         0.205779         0.669480
 H        -0.281501         0.386220        -1.086102
 H         1.717672         0.051547         2.278787
 H         1.803112        -1.503036         1.500799
 H         4.264890         0.179677         1.652569
 H         4.192260        -1.323449         0.813766
 H         4.487989         2.161973        -1.190053
 H         3.906635         0.975512        -2.318795
 H         1.789178         2.100205         0.833264
