19
Iteration:   289
 C         0.001402        -0.245053        -0.151831
 C         1.403519         0.030895         0.012555
 C         2.049055        -0.626703         1.368056
 C         3.607040        -0.396193         1.028483
 C         3.269816         0.407608        -0.207430
 C         3.719910         1.358528        -1.328958
 O         2.378333         2.077289        -1.185102
 C         2.135786         1.410207         0.051084
 O         2.285011        -0.304827        -1.018412
 H        -0.662336        -0.512539         0.767915
 H        -0.631329         0.594340        -0.580539
 H        -0.203164        -1.104463        -0.864703
 H         1.706522        -0.235200         2.331022
 H         1.858128        -1.734670         1.151535
 H         4.206330         0.051927         1.811052
 H         4.028577        -1.452207         0.663416
 H         4.623598         2.087672        -1.428785
 H         3.638408         0.735421        -2.267828
 H         2.130018         2.059450         0.907105
