19
Iteration:  3366charge 0 multiplicity 1
 C        -0.111145        -0.259985        -0.212918
 C         1.360444         0.110563         0.170833
 C         1.919437        -0.045400         1.563837
 C         3.472388         0.047404         1.219955
 C         3.303061         0.429048        -0.206684
 C         3.758001         0.972851        -1.541514
 O         2.581022         1.793158        -1.591780
 C         2.167284         1.383026        -0.292750
 O         2.332135        -0.671393        -0.583464
 H        -0.362984        -1.327016         0.037492
 H        -0.874854         0.386195         0.298304
 H        -0.066598        -0.133122        -1.337181
 H         1.586446         0.773301         2.224533
 H         1.625723        -1.021943         1.917243
 H         4.112795         0.723554         1.851466
 H         3.964153        -0.951605         1.377995
 H         4.700316         1.607055        -1.495015
 H         3.670529         0.197772        -2.306955
 H         2.151979         2.244269         0.321999
