19
Iteration:  1062
 C        -0.123247        -0.271657        -0.123098
 C         1.336763         0.072417         0.114287
 C         2.043879        -0.707118         1.301127
 C         3.582022        -0.354499         0.956539
 C         3.283424         0.470459        -0.248815
 C         3.770386         1.379145        -1.313533
 O         2.425527         2.000868        -1.291803
 C         2.163766         1.475702         0.066834
 O         2.306760        -0.387553        -0.938239
 H        -0.480438        -1.296022         0.138515
 H        -0.573093         0.442595         0.584006
 H        -0.509000         0.029923        -1.123627
 H         1.613201        -0.263047         2.218894
 H         1.810359        -1.712145         1.278892
 H         4.120287         0.184981         1.795288
 H         4.212007        -1.232707         0.743669
 H         4.627171         1.994439        -0.971137
 H         3.919140         1.082364        -2.340815
 H         2.404340         2.294106         0.809435
