19
Iteration:  3801
 C        -0.096789        -0.191112        -0.204291
 C         1.343459         0.164004         0.092726
 C         1.866028         0.220667         1.628238
 C         3.454343         0.164065         1.343775
 C         3.266983         0.429671        -0.121323
 C         3.836548         0.870953        -1.503780
 O         2.630781         1.454697        -1.852901
 C         2.131187         1.337733        -0.369281
 O         2.337355        -0.702188        -0.493032
 H        -0.837058         0.646007        -0.034673
 H        -0.425878        -0.477130        -1.198698
 H        -0.529266        -0.843675         0.566270
 H         1.754604         1.137723         2.248731
 H         1.559663        -0.594069         2.176111
 H         3.948929         1.006603         1.857545
 H         3.993548        -0.777119         1.552517
 H         4.797885         1.601450        -1.423070
 H         4.182043         0.076000        -2.127902
 H         1.997163         2.312387         0.012673
