19
Iteration:  3409charge 0 multiplicity 1
 C        -0.126134        -0.051659        -0.113488
 C         1.313620         0.062152         0.134295
 C         1.936892        -0.099711         1.541887
 C         3.501103         0.153257         1.276639
 C         3.309594         0.324590        -0.218416
 C         3.923789         1.137699        -1.460186
 O         2.459844         1.567905        -1.726745
 C         2.136929         1.286279        -0.260835
 O         2.338310        -0.701993        -0.656730
 H        -0.427385        -0.911467        -0.743877
 H        -0.836908        -0.097444         0.747087
 H        -0.405646         0.828188        -0.752993
 H         1.590168         0.624840         2.298614
 H         1.701976        -1.029360         1.791870
 H         3.764945         1.005223         1.959650
 H         4.259612        -0.684440         1.362810
 H         4.579542         1.979301        -0.961664
 H         4.440778         0.633878        -2.260307
 H         2.160617         2.124461         0.381078
