19
Iteration:  3626charge 0 multiplicity 1
 C        -0.083769        -0.212493        -0.170603
 C         1.308609         0.152849         0.125204
 C         1.897216         0.125422         1.555047
 C         3.434720         0.192629         1.316881
 C         3.257051         0.293645        -0.280550
 C         3.815599         0.921508        -1.538838
 O         2.607933         1.677946        -1.725664
 C         2.207085         1.362618        -0.245643
 O         2.331264        -0.777385        -0.525912
 H        -0.440606        -0.980078         0.512480
 H        -0.878563         0.486203        -0.323564
 H        -0.073383        -0.860472        -1.050532
 H         1.670190         1.104051         2.131746
 H         1.516843        -0.646908         2.136057
 H         3.952252         1.048009         1.830355
 H         3.964953        -0.725397         1.654903
 H         4.731691         1.520568        -1.421601
 H         3.887115         0.283150        -2.328515
 H         2.156391         2.413207         0.236416
