19
Iteration:  2422charge 0 multiplicity 1
 C        -0.083742        -0.191228        -0.091311
 C         1.345835        -0.046651         0.065299
 C         2.016930        -0.400657         1.374797
 C         3.575967        -0.277687         0.984761
 C         3.289619         0.355898        -0.321683
 C         3.758751         1.400853        -1.303862
 O         2.472296         1.997975        -1.282067
 C         2.169893         1.366778        -0.049556
 O         2.264013        -0.583995        -0.934811
 H        -0.583572         0.572752        -0.742943
 H        -0.485860        -1.153811        -0.548842
 H        -0.478502         0.003840         0.879849
 H         1.865043         0.233705         2.293966
 H         1.783331        -1.497549         1.655126
 H         4.182412         0.520746         1.540942
 H         4.088122        -1.158584         1.194109
 H         4.375188         2.092603        -0.677474
 H         4.029589         1.309802        -2.390269
 H         2.110624         2.062830         0.850494
