19
Iteration:  3233
 C        -0.034776        -0.207646        -0.243464
 C         1.354834         0.151108         0.137908
 C         1.975877        -0.231845         1.569972
 C         3.515855        -0.064708         1.283253
 C         3.262644         0.438419        -0.170705
 C         3.768877         0.979158        -1.559225
 O         2.463735         1.800115        -1.553186
 C         2.175971         1.468473        -0.268009
 O         2.330626        -0.566627        -0.663608
 H        -0.537597         0.576190        -0.905909
 H        -0.160155        -1.150786        -0.817196
 H        -0.756948        -0.314320         0.573434
 H         1.719016         0.342840         2.529055
 H         1.700742        -1.225691         1.702753
 H         4.103381         0.687379         1.869604
 H         4.046880        -1.086463         1.293041
 H         4.570048         1.653329        -1.430680
 H         3.945570         0.266983        -2.283515
 H         1.977068         2.221362         0.435280
