19
Iteration:   464charge 0 multiplicity 1
 C        -0.066090        -0.112600        -0.182593
 C         1.415611         0.022936         0.102911
 C         2.068331        -0.514316         1.390131
 C         3.536774        -0.345438         1.027295
 C         3.306206         0.355447        -0.383111
 C         3.684035         1.470770        -1.328735
 O         2.389124         2.207268        -1.169808
 C         2.150870         1.318026        -0.063892
 O         2.317858        -0.713431        -0.915440
 H        -0.009938        -1.024399        -0.915227
 H        -0.639985        -0.414983         0.759647
 H        -0.478491         0.821455        -0.632269
 H         1.771129         0.153404         2.219851
 H         1.933412        -1.574189         1.628072
 H         4.116594         0.132953         1.781550
 H         4.068133        -1.358896         0.854792
 H         4.493007         2.111378        -1.097091
 H         3.681519         1.168788        -2.343442
 H         2.148601         1.851947         0.858836
