19
Iteration:  2729
 C        -0.166242        -0.130231        -0.029915
 C         1.356803        -0.020783         0.101018
 C         2.058308        -0.497089         1.330509
 C         3.548366        -0.272711         1.076170
 C         3.322604         0.381914        -0.348137
 C         3.812180         1.465149        -1.265354
 O         2.460630         2.004368        -1.375800
 C         2.133390         1.381873        -0.086028
 O         2.274944        -0.628788        -0.933398
 H        -0.834024         0.719194        -0.188324
 H        -0.296789        -0.820482        -0.820243
 H        -0.327000        -0.573632         1.009666
 H         1.637880        -0.037107         2.213485
 H         1.894666        -1.605731         1.313331
 H         3.985734         0.504006         1.675629
 H         4.108913        -1.149858         1.241311
 H         4.454667         2.185754        -0.930649
 H         4.141884         1.069086        -2.209055
 H         2.225565         2.103315         0.787469
