19
Iteration:  4416
 C        -0.163557        -0.141046        -0.088566
 C         1.347035         0.157830         0.111056
 C         1.884071         0.087833         1.619402
 C         3.483381         0.194132         1.440080
 C         3.294433         0.507226        -0.102950
 C         3.998625         0.898481        -1.548890
 O         2.577334         1.326550        -1.889407
 C         2.097870         1.414418        -0.518586
 O         2.298933        -0.671811        -0.478350
 H        -0.797800        -0.370680         0.769057
 H        -0.765510         0.723198        -0.420989
 H        -0.346390        -0.984605        -0.793754
 H         1.550363         0.925336         2.175575
 H         1.625484        -0.863161         2.066461
 H         4.153017         0.969556         2.009907
 H         3.785850        -0.851628         1.540685
 H         4.566231         1.878586        -1.452717
 H         4.575541         0.194206        -2.217154
 H         1.883688         2.554897        -0.243117
