19
Iteration:  3120charge 0 multiplicity 1
 C        -0.094735        -0.117985        -0.178767
 C         1.344656         0.135919         0.180928
 C         1.986176        -0.396678         1.474240
 C         3.543338        -0.084885         1.218603
 C         3.286933         0.453544        -0.215634
 C         3.852596         1.121465        -1.395166
 O         2.405375         1.775896        -1.543752
 C         2.175498         1.414745        -0.202095
 O         2.287854        -0.558780        -0.779208
 H        -0.328793        -1.162468         0.270322
 H        -0.795448         0.675518         0.268646
 H        -0.122569        -0.129535        -1.351822
 H         1.757561         0.203307         2.325281
 H         1.983724        -1.563878         1.593461
 H         4.002632         0.764323         1.830986
 H         4.159412        -1.003183         1.348981
 H         4.645304         1.840353        -1.398630
 H         3.907662         0.373768        -2.265313
 H         2.107987         2.313962         0.451736
