19
Iteration:  4198
 C        -0.080730        -0.263625        -0.267366
 C         1.303975         0.246009         0.144424
 C         1.943384         0.203742         1.717249
 C         3.378695         0.180454         1.417134
 C         3.312185         0.454344        -0.174982
 C         3.864250         0.724789        -1.544997
 O         2.563238         1.489137        -1.893521
 C         2.191552         1.456718        -0.487742
 O         2.314685        -0.671243        -0.377568
 H        -0.117278        -1.346670        -0.067509
 H        -1.075566         0.152725         0.215501
 H        -0.336277        -0.207158        -1.337813
 H         1.680139         1.133260         2.371438
 H         1.610683        -0.766955         2.280482
 H         3.973463         1.032270         1.940040
 H         4.035896        -0.695357         1.650395
 H         4.688928         1.356724        -1.585891
 H         3.972768        -0.165740        -2.199648
 H         2.111600         2.480340        -0.082627
