19
Iteration:  1608
 C        -0.112408        -0.152910        -0.038096
 C         1.375737         0.113220         0.140057
 C         2.005246        -0.722225         1.278272
 C         3.618852        -0.383514         1.014385
 C         3.307505         0.446472        -0.222251
 C         3.765241         1.475381        -1.330457
 O         2.391343         1.959546        -1.382595
 C         2.135286         1.438584        -0.023494
 O         2.331671        -0.438321        -0.916291
 H        -0.324963        -1.194001         0.413613
 H        -0.976409         0.404970         0.497024
 H        -0.273401        -0.165812        -1.135990
 H         1.941546        -0.482544         2.312937
 H         1.660770        -1.772352         1.178999
 H         4.092289         0.197066         1.893074
 H         4.235011        -1.387425         0.837397
 H         4.370273         2.241406        -0.870797
 H         4.010560         1.017125        -2.314598
 H         2.097114         2.333785         0.638825
