19
Iteration:  1847charge 0 multiplicity 1
 C        -0.090836        -0.189596        -0.245464
 C         1.326146         0.113051         0.112799
 C         2.113096        -0.529981         1.426203
 C         3.601004        -0.340827         0.924043
 C         3.303707         0.398247        -0.225481
 C         3.734970         1.338981        -1.308109
 O         2.336657         2.024631        -1.258325
 C         2.132103         1.357098         0.035308
 O         2.319966        -0.486691        -0.937165
 H         0.088750        -1.198203        -0.600034
 H        -0.700277        -0.012030         0.663346
 H        -0.392594         0.512171        -0.999443
 H         1.874219         0.225342         2.261214
 H         1.832036        -1.615738         1.729024
 H         4.137169         0.221968         1.688889
 H         4.023010        -1.329819         0.663041
 H         4.477742         2.116217        -1.077753
 H         3.960818         0.759207        -2.239321
 H         2.291065         2.058478         0.901361
