19
Iteration:  2930
 C        -0.055049        -0.243217        -0.289302
 C         1.323776         0.079613         0.136099
 C         2.035443        -0.302114         1.563389
 C         3.614396        -0.264444         1.072207
 C         3.272864         0.354132        -0.280041
 C         3.738345         1.210784        -1.451123
 O         2.439749         2.003872        -1.401316
 C         2.115279         1.448106        -0.073059
 O         2.294492        -0.556711        -0.774149
 H         0.041109        -0.780875        -1.256761
 H        -0.532419        -0.916129         0.484480
 H        -0.399567         0.798217        -0.355365
 H         1.940412         0.230111         2.483272
 H         1.671331        -1.278675         1.725761
 H         4.146776         0.202420         1.844307
 H         3.986679        -1.277766         0.930708
 H         4.508172         1.824294        -1.203030
 H         4.005517         0.539783        -2.224426
 H         1.887228         2.217947         0.733606
