19
Iteration:   579
 C        -0.057020        -0.226889        -0.204280
 C         1.394641        -0.059009         0.047880
 C         2.157602        -0.446861         1.431787
 C         3.570530        -0.318826         0.938237
 C         3.259027         0.368564        -0.319217
 C         3.677178         1.359259        -1.337396
 O         2.415918         2.110394        -1.139664
 C         2.117887         1.317636         0.109753
 O         2.260361        -0.471562        -1.034339
 H        -0.614700        -1.025210         0.281597
 H        -0.627782         0.638673         0.174696
 H        -0.391382        -0.248021        -1.256603
 H         1.790815         0.308851         2.121802
 H         2.047075        -1.562026         1.710451
 H         3.993798         0.223596         1.827627
 H         4.118857        -1.212239         0.608831
 H         4.577210         1.935847        -0.871745
 H         4.020730         0.961104        -2.336781
 H         2.369433         1.939872         1.015379
