19
Iteration:  1662
 C        -0.146127        -0.231317        -0.200215
 C         1.393104        -0.048515         0.071503
 C         2.115858        -0.438655         1.406233
 C         3.595006        -0.273914         1.024671
 C         3.227131         0.311775        -0.381474
 C         3.727286         1.401061        -1.395151
 O         2.423109         2.191893        -1.155096
 C         2.209049         1.310964         0.036683
 O         2.251389        -0.587099        -0.935349
 H        -0.359478        -1.306485        -0.503395
 H        -0.776944         0.080893         0.701639
 H        -0.536956         0.367573        -1.043759
 H         2.010787         0.128558         2.298671
 H         1.894175        -1.513965         1.530948
 H         4.146297         0.571261         1.589758
 H         4.040015        -1.376875         1.159919
 H         4.591107         1.969367        -0.964224
 H         3.980515         1.138941        -2.455595
 H         2.305393         1.994335         0.880358
