19
Iteration:  1557
 C        -0.110397        -0.164827        -0.220552
 C         1.368141        -0.010153        -0.030374
 C         2.089407        -0.454469         1.465816
 C         3.614364        -0.303175         0.962419
 C         3.284858         0.342754        -0.333715
 C         3.692856         1.412097        -1.376870
 O         2.457700         2.141397        -1.151114
 C         2.074149         1.302372         0.065399
 O         2.337467        -0.602406        -0.923492
 H        -0.472615        -1.151815        -0.152537
 H        -0.621258         0.286146         0.615043
 H        -0.477915         0.320436        -1.120468
 H         1.967657         0.096096         2.477510
 H         1.862770        -1.534806         1.722200
 H         4.252229         0.226459         1.593227
 H         4.028107        -1.264165         0.853343
 H         4.579462         2.117588        -1.263446
 H         3.580419         0.983151        -2.414336
 H         1.966719         1.908461         0.991363
