19
Iteration:  2747charge 0 multiplicity 1
 C        -0.164792        -0.192245        -0.045945
 C         1.311773         0.038508         0.009040
 C         2.088572        -0.538378         1.447939
 C         3.618640        -0.187760         1.069099
 C         3.300264         0.369622        -0.305905
 C         3.815446         1.407813        -1.330354
 O         2.466228         2.053401        -1.347400
 C         2.135795         1.334012        -0.112807
 O         2.263356        -0.616508        -0.941667
 H        -0.533146         0.818211        -0.128710
 H        -0.684374        -0.549755        -0.988701
 H        -0.703459        -0.645609         0.738991
 H         1.659018        -0.036930         2.377740
 H         1.787865        -1.629769         1.633396
 H         4.062600         0.538784         1.889844
 H         4.285235        -1.068707         0.973735
 H         4.568477         1.940104        -0.595579
 H         4.138257         1.095059        -2.379885
 H         2.026010         1.872079         0.814656
