19
Iteration:  2541charge 0 multiplicity 1
 C        -0.065703        -0.217602        -0.180837
 C         1.359774         0.005722         0.032909
 C         2.058255        -0.370556         1.446667
 C         3.602858        -0.276650         1.017543
 C         3.256832         0.320310        -0.266877
 C         3.671436         1.358569        -1.400160
 O         2.492883         2.111709        -1.231865
 C         2.062058         1.342660         0.006316
 O         2.309409        -0.580217        -0.914043
 H        -0.418233         0.025485        -1.225797
 H        -0.363953        -1.338246        -0.136599
 H        -0.627343         0.417744         0.504888
 H         2.005159         0.247188         2.321122
 H         2.010987        -1.488818         1.624994
 H         4.309991         0.218615         1.766524
 H         3.929170        -1.286604         0.837546
 H         4.746113         1.820084        -1.109323
 H         3.859616         1.034205        -2.526135
 H         1.909675         2.005829         0.905585
