19
Iteration:   621
 C         0.000466        -0.182084        -0.156421
 C         1.386218         0.120430         0.128736
 C         2.063161        -0.623644         1.284692
 C         3.575050        -0.422110         0.987604
 C         3.227980         0.517123        -0.248914
 C         3.736237         1.392216        -1.340599
 O         2.345714         2.010541        -1.357716
 C         2.152868         1.452402         0.075294
 O         2.317519        -0.481426        -0.844684
 H        -0.127184        -1.322245        -0.315145
 H        -0.573705         0.021992         0.837492
 H        -0.406989         0.301077        -1.118093
 H         1.803268        -0.470200         2.378641
 H         1.655934        -1.675589         1.094761
 H         4.237876        -0.001405         1.820503
 H         4.029352        -1.353158         0.680487
 H         4.503415         2.060882        -1.023403
 H         3.950322         0.907743        -2.327478
 H         2.155092         2.129285         0.940068
