19
Iteration:  3627
 C        -0.083069        -0.213149        -0.175676
 C         1.305947         0.149066         0.129404
 C         1.898944         0.122536         1.553064
 C         3.427826         0.187562         1.318362
 C         3.264792         0.302811        -0.279639
 C         3.816910         0.916383        -1.548551
 O         2.609777         1.679135        -1.728030
 C         2.204700         1.372074        -0.244988
 O         2.325721        -0.776857        -0.521551
 H        -0.402835        -0.984004         0.515354
 H        -0.888924         0.478620        -0.280993
 H        -0.082641        -0.866364        -1.077837
 H         1.646265         1.128888         2.161453
 H         1.535337        -0.663425         2.142462
 H         3.976419         1.040344         1.849625
 H         3.979637        -0.740410         1.677409
 H         4.706703         1.526054        -1.417278
 H         3.930629         0.261583        -2.349134
 H         2.150523         2.420615         0.238502
