19
Iteration:  3301
 C        -0.204433        -0.143556        -0.086123
 C         1.311653         0.070982         0.073446
 C         1.997989        -0.112000         1.556320
 C         3.510312        -0.019627         1.192757
 C         3.293107         0.376437        -0.211957
 C         3.896806         1.159567        -1.396728
 O         2.532498         1.722348        -1.660127
 C         2.116774         1.313864        -0.337848
 O         2.316144        -0.682372        -0.665794
 H        -0.636816         0.091239         0.884495
 H        -0.554594         0.479519        -0.935307
 H        -0.398104        -1.210825        -0.309996
 H         1.662293         0.632585         2.342060
 H         1.759031        -1.046711         2.123849
 H         3.920442         0.817441         1.803388
 H         4.116638        -0.935324         1.290429
 H         4.546870         1.947021        -1.025643
 H         4.385581         0.718233        -2.237951
 H         2.101790         2.206317         0.284510
