19
Iteration:  1103
 C        -0.141308        -0.166182        -0.240669
 C         1.414281        -0.077497         0.047283
 C         2.034088        -0.504752         1.408163
 C         3.619390        -0.368809         0.966472
 C         3.202832         0.344526        -0.365695
 C         3.682182         1.452528        -1.351516
 O         2.405040         2.157799        -1.151644
 C         2.224731         1.391641         0.015116
 O         2.331300        -0.583620        -0.883070
 H        -0.338030        -1.140549        -0.635512
 H        -0.612974        -0.053259         0.694843
 H        -0.473117         0.586073        -0.940238
 H         2.037061         0.206765         2.265130
 H         1.831086        -1.519837         1.810035
 H         4.252785         0.082016         1.727730
 H         4.024484        -1.310278         0.720348
 H         4.463366         2.122668        -0.990247
 H         3.895999         1.114446        -2.339958
 H         2.246772         1.974184         0.987741
