19
Iteration:  3671charge 0 multiplicity 1
 C        -0.099437        -0.160565        -0.121834
 C         1.366347         0.184853         0.140180
 C         1.916195         0.030899         1.571138
 C         3.449614         0.129379         1.276945
 C         3.269402         0.488692        -0.122071
 C         3.929474         0.835021        -1.452231
 O         2.569158         1.459565        -1.804675
 C         2.090573         1.424097        -0.343110
 O         2.340822        -0.642290        -0.586442
 H        -0.237640        -1.213048        -0.545804
 H        -0.758268         0.026876         0.694033
 H        -0.739048         0.313185        -0.949646
 H         1.487791         0.937458         2.211733
 H         1.716723        -0.879005         2.015558
 H         3.853492         1.007910         1.907651
 H         3.936412        -0.884413         1.515030
 H         4.505359         1.773811        -1.337591
 H         4.261751         0.162702        -2.155995
 H         1.903396         2.572571         0.003272
