19
Iteration:  3897
 C        -0.027596        -0.259966        -0.222767
 C         1.316540         0.153470         0.163707
 C         1.906987         0.254308         1.575529
 C         3.473929         0.213175         1.408763
 C         3.275836         0.472035        -0.116529
 C         3.887133         0.694342        -1.529298
 O         2.542526         1.499524        -1.828067
 C         2.154347         1.502291        -0.484800
 O         2.306231        -0.709751        -0.451427
 H        -0.664986        -0.674342         0.608305
 H        -0.618921         0.616406        -0.457420
 H        -0.111706        -1.017002        -0.982932
 H         1.426263         1.135267         2.090846
 H         1.503966        -0.713648         2.092318
 H         3.911253         0.925127         2.079420
 H         3.827637        -0.749558         1.592916
 H         4.736317         1.278705        -1.528793
 H         4.020677        -0.177958        -2.109084
 H         2.096642         2.472416         0.040833
