19
Iteration:  2708
 C        -0.128684        -0.219224        -0.065751
 C         1.388999         0.044260         0.075192
 C         2.007497        -0.534152         1.409453
 C         3.547915        -0.301360         1.039128
 C         3.283239         0.424848        -0.250537
 C         3.783524         1.305149        -1.351899
 O         2.414438         1.970283        -1.347502
 C         2.166809         1.404137        -0.050868
 O         2.321310        -0.455889        -0.929967
 H        -0.604564         0.666638        -0.567553
 H        -0.158387        -1.017990        -0.755829
 H        -0.535576        -0.315609         1.012728
 H         1.862309        -0.045475         2.336119
 H         1.712154        -1.564589         1.316027
 H         4.094194         0.314821         1.683561
 H         4.161814        -1.126865         0.765424
 H         4.384000         2.094220        -0.894344
 H         4.249009         1.111295        -2.286570
 H         2.015762         2.272735         0.664209
