19
Iteration:    81
 C        -0.120518        -0.252095        -0.106872
 C         1.397029         0.051243         0.127663
 C         2.133539        -0.779134         1.236420
 C         3.617275        -0.466869         0.901711
 C         3.239597         0.428087        -0.303039
 C         3.717762         1.478440        -1.281850
 O         2.426674         2.092086        -1.161486
 C         2.094318         1.326911         0.149949
 O         2.266541        -0.221744        -1.040780
 H        -0.285140        -1.288904         0.177241
 H        -0.739886         0.459463         0.467324
 H        -0.228443        -0.075324        -1.191475
 H         1.816315        -0.532020         2.297112
 H         1.980974        -1.823634         0.965442
 H         4.269560        -0.003212         1.707689
 H         4.039482        -1.450420         0.623009
 H         4.505971         2.096325        -0.723029
 H         4.042114         1.251517        -2.292194
 H         2.100957         2.121894         1.010965
