19
Iteration:  4630
 C        -0.143608        -0.278083        -0.117615
 C         1.364345         0.263096         0.092123
 C         1.856045         0.255008         1.569991
 C         3.488309         0.214112         1.369343
 C         3.227908         0.388740        -0.136201
 C         3.822634         0.690379        -1.530569
 O         2.619870         1.502000        -1.859524
 C         2.163836         1.482455        -0.464216
 O         2.380705        -0.714931        -0.426865
 H        -0.062729        -1.281236        -0.379365
 H        -0.745247        -0.163813         0.806520
 H        -0.600506         0.224084        -0.927490
 H         1.436916         1.136467         2.181442
 H         1.503885        -0.566977         2.143396
 H         3.962972         0.923456         1.970854
 H         3.932766        -0.727243         1.692638
 H         4.646955         1.441836        -1.553405
 H         3.999006        -0.180750        -2.178595
 H         2.118303         2.498706        -0.080151
