19
Iteration:  2003charge 0 multiplicity 1
 C        -0.078373        -0.111245        -0.111577
 C         1.364976        -0.084299         0.031954
 C         2.053822        -0.575825         1.378044
 C         3.642503        -0.284915         1.059709
 C         3.190780         0.414719        -0.248524
 C         3.754471         1.421964        -1.387470
 O         2.416824         2.079700        -1.251040
 C         2.151886         1.342701        -0.043387
 O         2.311924        -0.556404        -0.951400
 H        -0.571346        -0.971079         0.252531
 H        -0.560000         0.618309         0.500934
 H        -0.284256         0.033021        -1.178527
 H         1.756067         0.041035         2.312928
 H         1.617023        -1.579251         1.512085
 H         4.083438         0.410990         1.806353
 H         4.358066        -1.178964         0.874202
 H         4.554513         2.127551        -1.087506
 H         3.937722         0.819363        -2.273500
 H         2.033964         1.933533         0.864330
