19
Iteration:  1576
 C        -0.081465        -0.149215        -0.181487
 C         1.353340        -0.016779         0.137304
 C         2.132372        -0.584758         1.316993
 C         3.667860        -0.358094         1.036393
 C         3.248955         0.428077        -0.290630
 C         3.717222         1.368341        -1.310302
 O         2.353316         2.059960        -1.237678
 C         2.151536         1.418042        -0.018459
 O         2.261245        -0.501017        -0.957440
 H        -0.511293        -1.194151        -0.023518
 H        -0.804548         0.545756         0.380909
 H        -0.198155         0.082030        -1.254169
 H         1.913162         0.028361         2.234714
 H         1.756981        -1.608010         1.617739
 H         4.215992         0.324124         1.692669
 H         4.370789        -1.260404         0.917310
 H         4.500775         1.900801        -0.800052
 H         4.090890         0.930565        -2.270524
 H         2.095291         2.147982         0.840718
