19
Iteration:   887
 C        -0.153301        -0.163587        -0.056480
 C         1.328244        -0.048077         0.058667
 C         2.061072        -0.492549         1.320153
 C         3.619167        -0.357677         0.975555
 C         3.337632         0.411423        -0.279552
 C         3.786471         1.486886        -1.299373
 O         2.417775         2.162471        -1.212807
 C         2.138799         1.302548        -0.066134
 O         2.260450        -0.651306        -0.967316
 H        -0.407886        -1.291667        -0.049616
 H        -0.659481         0.296253         0.827019
 H        -0.397561         0.278469        -1.065681
 H         1.798511         0.089478         2.262587
 H         1.811093        -1.531905         1.314669
 H         4.128420         0.319934         1.720409
 H         4.192831        -1.274345         0.761217
 H         4.494628         2.205470        -0.702984
 H         4.078410         1.311583        -2.336182
 H         2.235178         1.854742         0.806948
