19
Iteration:  4140
 C        -0.210857        -0.092573        -0.096031
 C         1.339050         0.151515         0.146319
 C         1.830527         0.180089         1.638253
 C         3.497303         0.359485         1.364420
 C         3.281110         0.358645        -0.220349
 C         3.904500         0.923604        -1.451667
 O         2.631454         1.416176        -1.855538
 C         2.119149         1.233256        -0.461510
 O         2.370483        -0.819795        -0.534385
 H        -0.719450        -0.483449         0.770340
 H        -0.615270         0.900992        -0.320576
 H        -0.303947        -0.686554        -1.015218
 H         1.348832         0.960500         2.293587
 H         1.754211        -0.745971         2.083953
 H         3.904188         1.290677         1.640506
 H         4.053155        -0.509168         1.816189
 H         4.578126         1.772838        -1.201881
 H         4.291260         0.333146        -2.232509
 H         2.102286         2.326881        -0.142605
