19
Iteration:   277
 C        -0.136681        -0.257174        -0.127562
 C         1.375889         0.041652         0.072091
 C         2.024480        -0.654471         1.268935
 C         3.571696        -0.367769         0.920550
 C         3.303825         0.498976        -0.263582
 C         3.772872         1.415508        -1.324523
 O         2.409570         2.074676        -1.185862
 C         2.155276         1.409402         0.080618
 O         2.316657        -0.457479        -0.948275
 H        -0.531113        -0.154955         0.954743
 H        -0.474108         0.544133        -0.840653
 H        -0.308766        -1.303080        -0.561260
 H         1.726035        -0.252971         2.264347
 H         1.714121        -1.739747         1.364299
 H         4.154211         0.172534         1.672984
 H         4.161800        -1.346667         0.673943
 H         4.599166         2.138858        -0.949640
 H         3.931608         1.066141        -2.365619
 H         2.143708         2.080366         0.908810
