19
Iteration:  3690
 C        -0.169481        -0.097119        -0.108172
 C         1.329414         0.178163         0.112056
 C         1.890356         0.060397         1.592678
 C         3.455973         0.183094         1.374443
 C         3.309040         0.346562        -0.168847
 C         3.860855         1.058103        -1.460799
 O         2.571821         1.415510        -1.835047
 C         2.141160         1.354998        -0.431738
 O         2.348705        -0.719969        -0.578335
 H        -0.122319        -0.980749        -0.801272
 H        -0.560333        -0.425678         0.867670
 H        -0.577246         0.844600        -0.483085
 H         1.502411         0.764406         2.252688
 H         1.604203        -0.911237         1.927900
 H         3.899555         1.072871         1.781873
 H         3.977012        -0.707774         1.583840
 H         4.735947         1.799504        -1.158159
 H         4.319933         0.234209        -2.016013
 H         2.232798         2.251086         0.225659
