19
Iteration:  4305
 C        -0.153941        -0.292907        -0.175339
 C         1.296175         0.270910         0.171275
 C         1.923883         0.246861         1.613447
 C         3.437486         0.251181         1.434683
 C         3.359260         0.378140        -0.160891
 C         3.917236         0.751888        -1.493820
 O         2.573622         1.382677        -1.858589
 C         2.170123         1.438550        -0.487217
 O         2.268499        -0.642202        -0.533720
 H        -0.005393        -1.324354        -0.421693
 H        -0.850562        -0.168170         0.737247
 H        -0.540303         0.292527        -0.995820
 H         1.633566         1.093217         2.249167
 H         1.516746        -0.580074         2.095563
 H         4.140315         1.017021         1.843077
 H         3.840158        -0.709670         1.885381
 H         4.740718         1.623688        -1.224190
 H         4.248876        -0.043331        -2.226290
 H         1.948716         2.498732        -0.006656
