19
Iteration:   379
 C        -0.150162        -0.226720        -0.006194
 C         1.372059         0.079441         0.087225
 C         2.044565        -0.560700         1.357372
 C         3.561328        -0.379335         1.041391
 C         3.286955         0.471864        -0.264428
 C         3.803014         1.457057        -1.264830
 O         2.405491         1.968534        -1.313333
 C         2.144523         1.388831        -0.000433
 O         2.370209        -0.487061        -1.071980
 H        -0.333765        -0.996854        -0.713630
 H        -0.795193        -0.434255         0.849166
 H        -0.628512         0.563791        -0.549095
 H         1.650412        -0.214652         2.314312
 H         1.804898        -1.586150         1.289223
 H         4.025811         0.185542         1.848637
 H         4.011895        -1.217386         0.609666
 H         4.587110         2.248617        -0.963056
 H         4.103899         1.023624        -2.266587
 H         1.965278         2.067061         0.834541
