19
Iteration:   467charge 0 multiplicity 1
 C        -0.081211        -0.120838        -0.174770
 C         1.408173         0.030333         0.126688
 C         2.076827        -0.536591         1.390236
 C         3.521784        -0.362445         1.005633
 C         3.312062         0.356852        -0.387377
 C         3.686942         1.479014        -1.333855
 O         2.386363         2.208840        -1.181655
 C         2.157090         1.280383        -0.063662
 O         2.337204        -0.685541        -0.891371
 H         0.105492        -0.931589        -0.826167
 H        -0.637040        -0.339005         0.732771
 H        -0.438825         0.787274        -0.647376
 H         1.744267         0.140488         2.194957
 H         1.843016        -1.538490         1.610726
 H         4.009844         0.222209         1.791775
 H         3.968578        -1.241772         0.728497
 H         4.568269         2.095828        -1.090931
 H         3.758725         1.149299        -2.404154
 H         2.066024         1.867240         0.820062
