19
Iteration:  3648charge 0 multiplicity 1
 C        -0.055661        -0.288145        -0.135327
 C         1.343798         0.197432         0.090601
 C         1.860734         0.083701         1.657144
 C         3.474730         0.119189         1.327528
 C         3.263817         0.398796        -0.157416
 C         3.869478         0.882165        -1.509875
 O         2.578660         1.629498        -1.774327
 C         2.183445         1.400040        -0.439620
 O         2.293358        -0.658829        -0.508157
 H        -0.405393        -1.297348         0.059817
 H        -0.725328         0.455525         0.253727
 H        -0.290997        -0.218093        -1.216323
 H         1.589498         0.853039         2.445306
 H         1.506659        -0.849134         1.932651
 H         4.065740         0.863783         1.926916
 H         3.922352        -0.894219         1.415756
 H         4.759195         1.526490        -1.627288
 H         3.824895         0.133825        -2.204842
 H         2.069389         2.468004         0.030214
