19
Iteration:  1866
 C        -0.130045        -0.146081        -0.188334
 C         1.423091        -0.030537         0.081901
 C         2.086737        -0.494159         1.386753
 C         3.643662        -0.280825         1.010981
 C         3.272996         0.310340        -0.323884
 C         3.770661         1.459423        -1.323812
 O         2.456991         2.026125        -1.265589
 C         2.061448         1.374332         0.017605
 O         2.232245        -0.585458        -0.912781
 H        -0.367937        -1.119182        -0.753958
 H        -0.705022        -0.138834         0.791584
 H        -0.375636         0.799585        -0.688250
 H         1.827684        -0.001473         2.341542
 H         1.839656        -1.581161         1.403808
 H         4.176975         0.448555         1.615202
 H         4.140066        -1.172245         0.914679
 H         4.457642         2.065079        -0.757526
 H         4.042975         1.360382        -2.368450
 H         1.938245         2.078528         0.912134
