19
Iteration:  3468
 C        -0.131082        -0.316061        -0.132209
 C         1.373878         0.174604         0.128564
 C         1.878622         0.012140         1.615950
 C         3.410164         0.073188         1.231857
 C         3.305496         0.379200        -0.198224
 C         3.811878         0.981287        -1.507394
 O         2.586612         1.663002        -1.655755
 C         2.197751         1.440945        -0.296465
 O         2.332296        -0.656855        -0.655004
 H        -0.106932        -0.390828        -1.226326
 H        -0.357244        -1.225509         0.436196
 H        -0.710238         0.581505         0.178739
 H         1.696374         0.763346         2.317350
 H         1.593420        -0.973177         2.194427
 H         3.870334         0.853898         1.823817
 H         4.056980        -0.777315         1.332878
 H         4.686889         1.592115        -1.519973
 H         3.873918         0.161765        -2.348974
 H         2.083935         2.463398         0.168849
