19
Iteration:   745
 C         0.006846        -0.213056        -0.126353
 C         1.389379         0.097375         0.084803
 C         2.002324        -0.626608         1.400859
 C         3.556975        -0.426762         1.002187
 C         3.349267         0.471604        -0.236917
 C         3.756113         1.435503        -1.345930
 O         2.378291         2.087597        -1.311488
 C         2.135913         1.397002        -0.019050
 O         2.263576        -0.517781        -0.912646
 H        -0.277852        -1.261969        -0.278583
 H        -0.514128         0.069616         0.820299
 H        -0.467746         0.372032        -0.902854
 H         1.825439        -0.269107         2.432733
 H         1.796202        -1.718799         1.258692
 H         4.196829        -0.022709         1.786357
 H         3.982343        -1.347597         0.504863
 H         4.386723         2.231399        -1.078987
 H         3.906242         1.142987        -2.345927
 H         2.079020         2.177741         0.768199
