19
Iteration:  2811charge 0 multiplicity 1
 C        -0.052521        -0.243018        -0.252729
 C         1.422247         0.109933         0.165869
 C         2.007579        -0.429235         1.470624
 C         3.523183        -0.321907         1.087301
 C         3.336007         0.446939        -0.311345
 C         3.727761         1.268962        -1.459773
 O         2.356759         1.981483        -1.325870
 C         2.192015         1.413258        -0.011082
 O         2.305737        -0.517137        -0.825945
 H        -0.577525        -0.127485         0.691276
 H        -0.231309         0.557168        -1.061554
 H         0.036575        -1.083136        -0.884630
 H         1.856653         0.097769         2.424244
 H         1.662922        -1.441214         1.643398
 H         3.995226        -0.019477         2.017784
 H         3.899771        -1.351281         0.946218
 H         4.584769         2.021798        -1.327984
 H         3.703209         0.831506        -2.485894
 H         2.138480         2.252844         0.696866
