19
Iteration:  1400
 C        -0.054017        -0.230039        -0.281956
 C         1.343310         0.101232         0.151070
 C         2.087727        -0.658857         1.351372
 C         3.619025        -0.389631         0.908374
 C         3.251946         0.475724        -0.261529
 C         3.664490         1.369689        -1.411189
 O         2.477244         2.126821        -1.200185
 C         2.156034         1.435242         0.105751
 O         2.268880        -0.519148        -0.819907
 H        -0.281504        -1.270810         0.097759
 H        -0.833757         0.410430         0.185414
 H        -0.081329        -0.144032        -1.376678
 H         1.767682        -0.066507         2.297048
 H         1.675681        -1.683871         1.250706
 H         4.032438         0.261188         1.640418
 H         4.276784        -1.233722         0.636276
 H         4.647858         1.893334        -1.224238
 H         3.483783         0.830339        -2.386301
 H         2.099399         2.154043         0.961421
