19
Iteration:  3985
 C        -0.170236        -0.105727        -0.059125
 C         1.386478         0.207996         0.154145
 C         1.773488         0.069602         1.566904
 C         3.368977         0.325022         1.401828
 C         3.327857         0.486784        -0.111905
 C         3.948969         0.824246        -1.468798
 O         2.580207         1.298876        -1.997765
 C         2.178774         1.334409        -0.532093
 O         2.379425        -0.632621        -0.426654
 H        -0.154401        -1.191850        -0.367606
 H        -0.589020         0.015678         0.908246
 H        -0.761823         0.431274        -0.802377
 H         1.322749         0.744713         2.382170
 H         1.739629        -0.985742         1.929421
 H         3.723559         1.186031         1.913869
 H         3.972969        -0.490484         1.693223
 H         4.711522         1.590692        -1.540504
 H         4.301445        -0.036736        -1.969186
 H         2.160484         2.449814        -0.283504
