19
Iteration:  1593
 C        -0.065368        -0.176269        -0.146696
 C         1.375505         0.091926         0.172135
 C         2.094279        -0.689816         1.428663
 C         3.538018        -0.352191         0.955604
 C         3.296863         0.447321        -0.292884
 C         3.783441         1.451072        -1.318111
 O         2.386414         1.937395        -1.364857
 C         2.151934         1.377203         0.056279
 O         2.233852        -0.403746        -0.915732
 H        -0.293134        -1.204105         0.158226
 H        -0.560478         0.627619         0.341237
 H        -0.300935        -0.163593        -1.214372
 H         1.601615        -0.434589         2.401254
 H         1.993665        -1.696287         1.093453
 H         4.074811         0.325508         1.719507
 H         4.159284        -1.227209         0.710437
 H         4.531034         2.294273        -1.028508
 H         4.148565         1.136200        -2.291151
 H         2.165406         2.120808         0.834136
