19
Iteration:  3871
 C        -0.102610        -0.167789        -0.158324
 C         1.278048         0.232127         0.130996
 C         1.892843         0.122673         1.661858
 C         3.436548         0.303957         1.324026
 C         3.308091         0.409121        -0.168986
 C         3.949235         0.780103        -1.486656
 O         2.605293         1.391810        -1.889804
 C         2.093806         1.336026        -0.418783
 O         2.314376        -0.606858        -0.490847
 H        -0.645823        -0.406102         0.721022
 H        -0.731038         0.583670        -0.699331
 H        -0.179363        -1.134821        -0.656463
 H         1.484036         0.799309         2.374929
 H         1.524422        -0.894848         1.911859
 H         3.777345         1.229201         1.865632
 H         4.119453        -0.544723         1.682791
 H         4.805341         1.488446        -1.345507
 H         4.388118        -0.142852        -2.049284
 H         2.022610         2.354779         0.159647
