19
Iteration:  4362charge 0 multiplicity 1
 C        -0.123167        -0.138389        -0.223218
 C         1.344006         0.120967         0.064260
 C         1.901586         0.251331         1.679962
 C         3.468822         0.341933         1.396198
 C         3.317646         0.339281        -0.153434
 C         3.809090         0.848206        -1.547839
 O         2.619394         1.503449        -1.783434
 C         2.113610         1.274041        -0.409131
 O         2.328173        -0.818289        -0.492458
 H        -0.550610        -0.816582         0.561081
 H        -0.596938         0.868807        -0.143945
 H        -0.335483        -0.562527        -1.229722
 H         1.635273         1.206452         2.148907
 H         1.553503        -0.703157         2.210685
 H         3.911208         1.395077         1.526314
 H         4.010918        -0.491088         1.830433
 H         4.814821         1.548963        -1.657095
 H         4.013105        -0.078438        -2.194177
 H         1.956832         2.296528         0.171439
