19
Iteration:  1299charge 0 multiplicity 1
 C        -0.094017        -0.194911        -0.099250
 C         1.335135         0.021848         0.052909
 C         2.057672        -0.581858         1.329050
 C         3.597184        -0.301882         0.974703
 C         3.254694         0.404824        -0.305549
 C         3.796512         1.405213        -1.277252
 O         2.426132         2.015495        -1.245186
 C         2.116137         1.370874         0.048707
 O         2.278673        -0.441712        -0.981185
 H        -0.188966        -1.154945        -0.669794
 H        -0.570341        -0.249944         0.883767
 H        -0.476850         0.628039        -0.737232
 H         1.822601        -0.367980         2.378512
 H         1.926565        -1.620017         1.147960
 H         4.168693         0.365132         1.660401
 H         4.024540        -1.271172         0.979143
 H         4.584438         2.113674        -0.886917
 H         4.021751         0.971748        -2.214283
 H         2.192392         2.026584         0.891054
