19
Iteration:  4898
 C        -0.050168        -0.226504        -0.169387
 C         1.384530         0.234568         0.157572
 C         1.800937         0.306120         1.620090
 C         3.390291         0.174615         1.355018
 C         3.312056         0.328370        -0.211439
 C         3.856407         0.866797        -1.565266
 O         2.556061         1.490439        -1.780003
 C         2.186834         1.365884        -0.454732
 O         2.346930        -0.776720        -0.422204
 H        -0.204613        -1.288551         0.132225
 H        -0.682716         0.387043         0.441411
 H        -0.276014        -0.084154        -1.192409
 H         1.673185         1.316518         2.177497
 H         1.471630        -0.640686         2.187476
 H         3.953160         1.027850         1.743805
 H         3.854544        -0.764381         1.557400
 H         4.606955         1.670001        -1.777306
 H         4.022456         0.073310        -2.300394
 H         2.114220         2.365031        -0.022388
