19
Iteration:  1028charge 0 multiplicity 1
 C        -0.111576        -0.214289        -0.073011
 C         1.389578         0.032648         0.075615
 C         2.094923        -0.681823         1.322269
 C         3.562846        -0.336589         1.020013
 C         3.250859         0.412561        -0.297732
 C         3.835503         1.424978        -1.276648
 O         2.460903         2.075874        -1.223988
 C         2.078023         1.382150        -0.063931
 O         2.220820        -0.480451        -0.975509
 H        -0.454782        -1.130389         0.448853
 H        -0.475328         0.677867         0.389899
 H        -0.376753        -0.173255        -1.143554
 H         1.796089        -0.235644         2.275065
 H         1.890735        -1.695749         1.251276
 H         4.026771         0.374845         1.754515
 H         4.263187        -1.076608         0.712091
 H         4.539979         2.157800        -0.889953
 H         4.007637         1.265076        -2.316865
 H         2.214717         2.178583         0.724217
