19
Iteration:  1668charge 0 multiplicity 1
 C        -0.132211        -0.247094        -0.228506
 C         1.357784        -0.008055         0.024261
 C         2.108024        -0.446261         1.436643
 C         3.611707        -0.259634         1.007447
 C         3.266247         0.317759        -0.375031
 C         3.682212         1.381559        -1.380051
 O         2.436736         2.176401        -1.175156
 C         2.220409         1.338406         0.041952
 O         2.215939        -0.584966        -0.890224
 H        -0.205388        -1.254122        -0.571801
 H        -0.622158        -0.043440         0.663657
 H        -0.500640         0.353760        -1.055364
 H         1.923982         0.051531         2.491736
 H         1.977727        -1.526221         1.498297
 H         4.277717         0.331042         1.573807
 H         4.003223        -1.190643         1.007213
 H         4.562892         1.952395        -1.001717
 H         3.904561         1.227050        -2.418087
 H         2.404401         1.824714         1.032149
