19
Iteration:  3576charge 0 multiplicity 1
 C        -0.127928        -0.103967        -0.124268
 C         1.306212         0.169221         0.162298
 C         1.885166        -0.041037         1.599524
 C         3.476256         0.093509         1.298037
 C         3.306906         0.449815        -0.185875
 C         3.878600         0.985602        -1.426399
 O         2.530528         1.532080        -1.784922
 C         2.139203         1.381254        -0.438171
 O         2.389708        -0.699450        -0.557178
 H        -0.862262         0.205276         0.632941
 H        -0.468641         0.311323        -1.095310
 H        -0.402969        -1.205652        -0.164407
 H         1.601389         0.602774         2.404596
 H         1.636506        -1.091922         1.889182
 H         3.855357         1.026476         1.765448
 H         4.153453        -0.767395         1.507868
 H         4.441857         1.922822        -1.369434
 H         4.351272         0.183661        -2.162776
 H         2.149408         2.362885        -0.066835
