19
Iteration:  4612
 C        -0.034645        -0.243395        -0.125227
 C         1.386317         0.167330         0.030614
 C         1.875652         0.354374         1.593703
 C         3.362188         0.303833         1.359534
 C         3.341067         0.262956        -0.186550
 C         3.832683         0.786355        -1.563603
 O         2.622270         1.598764        -1.804897
 C         2.178945         1.333998        -0.450701
 O         2.258700        -0.789985        -0.381275
 H        -0.022723        -1.330306        -0.464002
 H        -0.561480        -0.220940         0.844706
 H        -0.739243         0.364978        -0.790071
 H         1.600401         1.187529         2.260468
 H         1.403926        -0.551449         2.071686
 H         4.073384         1.133941         1.678551
 H         3.809704        -0.577888         1.843133
 H         4.862158         1.281170        -1.563290
 H         3.754329        -0.004210        -2.360206
 H         1.971237         2.275933         0.054627
