19
Iteration:  3878
 C        -0.087071        -0.181974        -0.163599
 C         1.352769         0.231771         0.104343
 C         1.876229         0.108421         1.682501
 C         3.420603         0.287160         1.321434
 C         3.271722         0.411635        -0.122521
 C         3.844957         0.755583        -1.471733
 O         2.647220         1.382244        -1.861939
 C         2.106445         1.421241        -0.416446
 O         2.339306        -0.610820        -0.516895
 H        -0.777829        -0.496686         0.715701
 H        -0.778026         0.490352        -0.667189
 H         0.008303        -1.091510        -0.838788
 H         1.645387         0.968796         2.400442
 H         1.612810        -0.833404         2.076953
 H         3.877226         1.214876         1.674426
 H         4.018686        -0.626368         1.551317
 H         4.767221         1.491943        -1.490754
 H         4.078585        -0.183906        -1.953538
 H         1.889246         2.402754        -0.126104
