19
Iteration:  3319charge 0 multiplicity 1
 C        -0.100007        -0.280974        -0.093694
 C         1.350853         0.139477         0.140084
 C         1.913117        -0.055914         1.531872
 C         3.505284        -0.009538         1.193613
 C         3.240175         0.386249        -0.233410
 C         3.896594         1.067053        -1.407127
 O         2.557216         1.671437        -1.669488
 C         2.165829         1.472030        -0.194237
 O         2.285140        -0.641990        -0.726285
 H        -0.637756        -0.504754         0.907715
 H        -0.664047         0.561262        -0.541467
 H        -0.055459        -1.170749        -0.709160
 H         1.645628         0.761137         2.224646
 H         1.580483        -1.016373         1.804368
 H         4.171939         0.589572         1.832364
 H         3.800552        -1.098225         1.355805
 H         4.551509         2.025910        -1.346643
 H         4.052210         0.459919        -2.299585
 H         1.966376         2.392442         0.346102
