19
Iteration:  4284charge 0 multiplicity 1
 C        -0.184435        -0.133170        -0.120381
 C         1.321122         0.138392         0.087924
 C         1.861790         0.269907         1.585831
 C         3.437441         0.252242         1.264725
 C         3.254654         0.404434        -0.174873
 C         3.930705         0.950779        -1.420290
 O         2.616066         1.332050        -1.837475
 C         2.119341         1.286783        -0.487952
 O         2.357491        -0.763675        -0.445324
 H        -0.191473        -1.130755        -0.481689
 H        -0.603927         0.032180         0.941415
 H        -0.591677         0.635333        -0.755442
 H         1.527111         1.259516         2.007403
 H         1.474858        -0.508472         2.248514
 H         4.006561         1.096280         1.750575
 H         4.127956        -0.590468         1.503085
 H         4.746953         1.728016        -1.047942
 H         4.333015         0.136389        -2.081414
 H         2.254756         2.286917         0.104811
