19
Iteration:  3178
 C        -0.152409        -0.214106        -0.082035
 C         1.354460         0.045526         0.045559
 C         1.979677        -0.097308         1.510299
 C         3.502930        -0.107468         1.170686
 C         3.290134         0.315720        -0.264990
 C         3.834220         1.243593        -1.384307
 O         2.551928         1.815155        -1.567752
 C         2.124725         1.356420        -0.172343
 O         2.293103        -0.674308        -0.801903
 H        -0.382345        -0.855270        -1.007441
 H        -0.364779        -0.712511         0.871167
 H        -0.658167         0.765486        -0.074666
 H         1.677372         0.733397         2.254946
 H         1.722867        -0.958931         2.068985
 H         4.097722         0.724262         1.632110
 H         3.979138        -1.114711         1.436366
 H         4.576938         1.885830        -0.985512
 H         4.193950         0.744397        -2.232913
 H         1.980383         2.117192         0.557705
