19
Iteration:  1444charge 0 multiplicity 1
 C        -0.133379        -0.104440        -0.070395
 C         1.368361        -0.056929         0.031216
 C         1.995824        -0.536196         1.340783
 C         3.581193        -0.296540         0.947819
 C         3.349482         0.360904        -0.340774
 C         3.725944         1.498471        -1.285060
 O         2.412303         2.046281        -1.251193
 C         2.128897         1.285929         0.089377
 O         2.335469        -0.575469        -1.015814
 H        -0.460500        -1.136283         0.172268
 H        -0.443912         0.634536         0.703049
 H        -0.255182         0.252881        -1.092925
 H         2.002829         0.086362         2.301030
 H         1.753070        -1.613341         1.561011
 H         3.907428         0.426390         1.664535
 H         4.286639        -1.162688         0.937679
 H         4.321452         2.305806        -0.832721
 H         4.073637         1.127245        -2.285903
 H         2.197320         1.831860         1.072969
