19
Iteration:   360
 C        -0.075178        -0.150285        -0.148487
 C         1.380666        -0.096597         0.021148
 C         2.090212        -0.563918         1.364920
 C         3.581802        -0.342785         1.012881
 C         3.267913         0.387581        -0.311138
 C         3.764236         1.435474        -1.243103
 O         2.425453         2.057153        -1.232272
 C         2.091548         1.286748        -0.018866
 O         2.278763        -0.457375        -1.000322
 H        -0.560424        -1.068081        -0.374563
 H        -0.338283         0.032055         0.877564
 H        -0.576648         0.598233        -0.753058
 H         1.693184         0.201646         2.072130
 H         1.894824        -1.509546         1.826755
 H         4.255068         0.485596         1.595595
 H         4.250033        -1.185422         1.102338
 H         4.388882         2.219072        -0.793945
 H         4.055573         1.151782        -2.287880
 H         2.000590         2.103744         0.814157
