19
Iteration:  3242charge 0 multiplicity 1
 C        -0.136209        -0.131248        -0.201844
 C         1.324677         0.143126         0.113765
 C         1.953901        -0.215359         1.574851
 C         3.572837        -0.074472         1.321629
 C         3.315413         0.406078        -0.145356
 C         3.753691         1.014015        -1.532742
 O         2.468053         1.749896        -1.622337
 C         2.166063         1.460947        -0.171463
 O         2.383253        -0.619748        -0.741691
 H        -0.698804         0.700904        -0.803166
 H         0.047012        -0.921873        -0.978685
 H        -0.795047        -0.591503         0.591339
 H         1.565207         0.399415         2.406276
 H         1.915708        -1.272568         1.635399
 H         3.876373         0.764631         1.988106
 H         4.220762        -0.986923         1.552545
 H         4.482778         1.889243        -1.526039
 H         3.856781         0.408697        -2.465566
 H         2.054457         2.385517         0.411004
