19
Iteration:  4489charge 0 multiplicity 1
 C        -0.067206        -0.218335        -0.224749
 C         1.303811         0.142571         0.163199
 C         1.905130         0.289249         1.665296
 C         3.469271         0.333288         1.258530
 C         3.186088         0.267822        -0.280789
 C         3.883229         0.787918        -1.493000
 O         2.599936         1.591372        -1.760597
 C         2.140535         1.373869        -0.459668
 O         2.362059        -0.841220        -0.389334
 H        -0.646348        -0.824403         0.451870
 H        -0.709194         0.800192        -0.195009
 H        -0.236259        -0.615455        -1.227999
 H         1.373503         1.236572         2.168903
 H         1.706140        -0.567171         2.254230
 H         3.881765         1.199745         1.779681
 H         4.094358        -0.550793         1.540839
 H         4.845544         1.352062        -1.259553
 H         4.004703         0.123349        -2.362232
 H         1.997316         2.205043         0.194596
