19
Iteration:  3192
 C        -0.136573        -0.306548        -0.148114
 C         1.332236         0.124117         0.076178
 C         2.033112        -0.110011         1.601716
 C         3.519158        -0.090678         1.211418
 C         3.301008         0.281914        -0.282470
 C         3.868393         1.115945        -1.404152
 O         2.493673         1.875582        -1.523660
 C         2.139440         1.393315        -0.288030
 O         2.267674        -0.606030        -0.728862
 H        -0.355854        -0.443362        -1.206321
 H        -0.512382        -1.212400         0.346805
 H        -0.708067         0.545310         0.137452
 H         1.718362         0.788156         2.217183
 H         1.681763        -1.089778         1.914713
 H         4.087876         0.537837         1.886151
 H         3.950346        -1.098197         1.227459
 H         4.625266         1.856253        -1.159442
 H         4.031883         0.705312        -2.388188
 H         2.166103         2.297634         0.356820
