19
Iteration:   926
 C        -0.117014        -0.194891        -0.066081
 C         1.360089         0.041488         0.100948
 C         2.084812        -0.616809         1.297675
 C         3.633350        -0.310004         1.064227
 C         3.250598         0.460592        -0.263577
 C         3.756412         1.375192        -1.340151
 O         2.436293         2.043029        -1.277770
 C         2.133669         1.297091         0.013850
 O         2.269467        -0.409560        -1.020843
 H        -0.241067        -1.094651        -0.630755
 H        -0.717879        -0.247436         0.856339
 H        -0.460374         0.619734        -0.682802
 H         1.693552        -0.211846         2.229467
 H         1.796214        -1.732311         1.455950
 H         4.015537         0.330052         1.832050
 H         4.182045        -1.278051         0.986538
 H         4.556856         2.039349        -1.117839
 H         3.999070         0.876347        -2.306119
 H         2.205788         2.043889         0.960645
