19
Iteration:   718charge 0 multiplicity 1
 C        -0.142290        -0.308970        -0.181732
 C         1.331714         0.103114         0.109819
 C         2.104595        -0.512546         1.362445
 C         3.621332        -0.401069         1.006103
 C         3.317995         0.453088        -0.183754
 C         3.698604         1.279265        -1.362457
 O         2.447748         1.994226        -1.239594
 C         2.121158         1.405875         0.127915
 O         2.299913        -0.353540        -1.060796
 H        -0.257587        -1.202468        -0.855516
 H        -0.761202        -0.517251         0.756403
 H        -0.567365         0.577412        -0.758934
 H         2.096416         0.140508         2.252324
 H         1.816323        -1.498425         1.679138
 H         4.139932         0.121071         1.847080
 H         4.111255        -1.246534         0.615241
 H         4.480800         2.127452        -1.203200
 H         3.795176         0.917769        -2.437112
 H         2.092489         2.214964         0.864898
