19
Iteration:  1661charge 0 multiplicity 1
 C        -0.147142        -0.228639        -0.194585
 C         1.392503        -0.046987         0.081656
 C         2.116630        -0.443500         1.399612
 C         3.594454        -0.278323         1.024747
 C         3.227633         0.312234        -0.383170
 C         3.732208         1.403335        -1.397459
 O         2.423560         2.190187        -1.152281
 C         2.203102         1.311513         0.033390
 O         2.257146        -0.588669        -0.943621
 H        -0.381487        -1.302774        -0.473186
 H        -0.777591         0.077602         0.677702
 H        -0.519681         0.369880        -1.028630
 H         1.978506         0.163053         2.306896
 H         1.878493        -1.511343         1.556423
 H         4.119889         0.583551         1.594610
 H         4.065922        -1.365066         1.160407
 H         4.606757         1.985857        -0.946208
 H         3.968269         1.122100        -2.446717
 H         2.280154         2.003766         0.856510
