19
Iteration:  2074charge 0 multiplicity 1
 C        -0.102751        -0.221568        -0.168234
 C         1.359893         0.089797         0.100441
 C         2.073110        -0.457463         1.441707
 C         3.610296        -0.352252         0.973752
 C         3.253578         0.348783        -0.316130
 C         3.779922         1.370223        -1.345240
 O         2.461442         2.074440        -1.254507
 C         2.025573         1.386539        -0.050775
 O         2.314564        -0.533691        -0.900489
 H        -0.323468        -1.203624        -0.667896
 H        -0.643769        -0.585269         0.745736
 H        -0.559405         0.687324        -0.602314
 H         1.784830         0.238674         2.168454
 H         1.917100        -1.495224         1.774012
 H         4.345610         0.231245         1.635187
 H         4.037606        -1.331473         0.782071
 H         4.691519         1.928428        -0.917041
 H         3.819096         0.980866        -2.397394
 H         2.064525         2.038465         0.825040
