19
Iteration:   956
 C        -0.082539        -0.238028        -0.213624
 C         1.346070         0.127092         0.169388
 C         2.130140        -0.635559         1.402235
 C         3.628294        -0.403578         0.952741
 C         3.222868         0.470417        -0.279431
 C         3.701703         1.317243        -1.369300
 O         2.384816         2.053204        -1.226732
 C         2.184447         1.458677        -0.001799
 O         2.288748        -0.424253        -0.896975
 H        -0.014368        -1.193010        -0.754706
 H        -0.853045        -0.245324         0.576599
 H        -0.232652         0.551070        -0.975437
 H         1.873981        -0.306501         2.470423
 H         1.763754        -1.671324         1.251862
 H         4.139291         0.203695         1.739115
 H         4.036644        -1.415493         0.814602
 H         4.473303         2.032746        -1.048853
 H         3.864455         0.800629        -2.327253
 H         2.143071         2.140700         0.808636
