19
Iteration:   810charge 0 multiplicity 1
 C        -0.114923        -0.218231        -0.135039
 C         1.388961         0.023935         0.065431
 C         2.060991        -0.631367         1.360702
 C         3.620296        -0.391320         1.047291
 C         3.364608         0.385572        -0.317565
 C         3.692762         1.412016        -1.390461
 O         2.371365         2.159234        -1.184076
 C         2.148938         1.374893        -0.010314
 O         2.307583        -0.472599        -0.959286
 H        -0.610280        -0.922132         0.595541
 H        -0.474786         0.828912         0.072466
 H        -0.276279        -0.450393        -1.204140
 H         1.755703        -0.047721         2.261609
 H         1.737730        -1.698049         1.480451
 H         4.001155         0.329975         1.788121
 H         4.196335        -1.358729         1.020091
 H         4.566042         1.997937        -1.127685
 H         3.828665         0.938234        -2.339390
 H         2.019461         2.040909         0.798517
