19
Iteration:  4139
 C        -0.215300        -0.087805        -0.096403
 C         1.341951         0.147256         0.151353
 C         1.830145         0.174747         1.636482
 C         3.496124         0.358457         1.354609
 C         3.279748         0.366396        -0.216847
 C         3.906889         0.922297        -1.450357
 O         2.630990         1.412533        -1.854121
 C         2.122621         1.224346        -0.471841
 O         2.367936        -0.804478        -0.524672
 H        -0.713421        -0.477945         0.780778
 H        -0.597200         0.863079        -0.305789
 H        -0.296475        -0.686443        -0.998478
 H         1.373630         0.907904         2.282114
 H         1.739611        -0.754101         2.060545
 H         3.865610         1.283813         1.629466
 H         4.024303        -0.500185         1.796537
 H         4.611304         1.781375        -1.186306
 H         4.305937         0.339434        -2.247489
 H         2.111248         2.316869        -0.148032
