19
Iteration:  2743
 C        -0.193800        -0.187526        -0.037104
 C         1.370031         0.039979        -0.005643
 C         2.082386        -0.531399         1.436057
 C         3.589552        -0.187322         1.080527
 C         3.307852         0.367898        -0.263559
 C         3.824148         1.410756        -1.340722
 O         2.448443         2.074696        -1.354056
 C         2.170782         1.302677        -0.115780
 O         2.244143        -0.632516        -0.947583
 H        -0.534660         0.918291        -0.127648
 H        -0.682465        -0.689046        -0.923239
 H        -0.759127        -0.699996         0.790897
 H         1.747038        -0.115270         2.386163
 H         1.864750        -1.546567         1.568487
 H         3.997240         0.484445         1.769935
 H         4.260549        -1.084725         0.962019
 H         4.464241         2.006369        -0.614243
 H         4.248194         1.157555        -2.317442
 H         2.048773         2.015207         0.769504
