19
Iteration:  3565
 C        -0.114936        -0.135858        -0.128696
 C         1.371260         0.198533         0.142188
 C         1.872086        -0.061041         1.555460
 C         3.468113         0.134411         1.298718
 C         3.291578         0.415074        -0.149609
 C         3.913592         0.977225        -1.457481
 O         2.463132         1.454598        -1.826948
 C         2.174995         1.459097        -0.342968
 O         2.354493        -0.628830        -0.565212
 H        -0.527082         0.629818         0.546708
 H        -0.389965        -0.006728        -1.188831
 H        -0.237412        -1.205618         0.231570
 H         1.426833         0.375037         2.407685
 H         1.728416        -1.164757         1.637042
 H         3.985467         0.830164         1.993613
 H         3.779152        -0.902912         1.494184
 H         4.592361         1.809225        -1.189996
 H         4.490739         0.279810        -2.233326
 H         1.897764         2.383034         0.050386
