19
Iteration:  3284
 C        -0.105718        -0.046118        -0.083086
 C         1.382757         0.075447         0.137691
 C         1.981353        -0.177734         1.535472
 C         3.524968         0.039453         1.275852
 C         3.273335         0.312556        -0.276637
 C         3.803697         1.206220        -1.358982
 O         2.515323         1.740144        -1.705936
 C         2.048245         1.362501        -0.289178
 O         2.372730        -0.800677        -0.725288
 H        -0.664123         0.703577         0.511294
 H        -0.367045         0.132911        -1.124078
 H        -0.605221        -0.995468         0.185778
 H         1.542539         0.529799         2.220491
 H         1.608800        -1.226964         1.781721
 H         4.070780         0.870005         1.707030
 H         4.060281        -0.890482         1.451346
 H         4.615437         1.839386        -0.855527
 H         4.301713         0.566587        -2.177493
 H         1.876095         2.256292         0.388284
