19
Iteration:  4690
 C        -0.126809        -0.016037        -0.124992
 C         1.340283         0.118875         0.121685
 C         1.847431         0.205740         1.565979
 C         3.436416         0.275253         1.288658
 C         3.314600         0.336368        -0.234462
 C         3.912139         0.962951        -1.470091
 O         2.521653         1.418074        -1.844729
 C         2.190659         1.281616        -0.417025
 O         2.388191        -0.863477        -0.374743
 H        -0.673691        -0.731182         0.604327
 H        -0.616893         0.927306         0.001531
 H        -0.414309        -0.314361        -1.166716
 H         1.609257         1.009752         2.215509
 H         1.563271        -0.859185         1.808331
 H         3.785350         1.296497         1.649082
 H         3.784391        -0.628448         1.749734
 H         4.502871         1.942659        -1.374242
 H         4.413194         0.304029        -2.225173
 H         2.067444         2.271396        -0.015951
