19
Iteration:  1896charge 0 multiplicity 1
 C        -0.177884        -0.168853        -0.016035
 C         1.405593        -0.011036         0.081556
 C         2.062371        -0.568088         1.326825
 C         3.488477        -0.244029         1.075407
 C         3.259159         0.352199        -0.306705
 C         3.822029         1.437865        -1.334773
 O         2.457443         2.040625        -1.291303
 C         2.113394         1.376178        -0.052221
 O         2.343359        -0.565838        -0.985256
 H        -0.303762        -1.092304        -0.622306
 H        -0.482719        -0.123777         1.005353
 H        -0.623800         0.700087        -0.533881
 H         1.762433        -0.222250         2.274748
 H         1.778771        -1.552297         1.193689
 H         3.857749         0.527971         1.807355
 H         4.155973        -1.133576         0.930479
 H         4.620830         2.119257        -0.888502
 H         4.057556         1.234297        -2.381237
 H         2.232589         1.957753         0.839005
