19
Iteration:  3992charge 0 multiplicity 1
 C        -0.103624        -0.120657        -0.076890
 C         1.334555         0.221104         0.112432
 C         1.784598         0.055142         1.608091
 C         3.376875         0.327846         1.431879
 C         3.351713         0.504258        -0.144246
 C         3.847635         0.833917        -1.455503
 O         2.645148         1.266142        -1.932371
 C         2.173902         1.420215        -0.556449
 O         2.364473        -0.684645        -0.446117
 H        -0.181388        -1.132014        -0.385334
 H        -0.445923        -0.045934         0.988644
 H        -0.683048         0.452074        -0.784153
 H         1.449158         0.756616         2.282556
 H         1.404165        -0.961140         1.953945
 H         3.760097         1.302998         1.901880
 H         4.050031        -0.507373         1.716011
 H         4.635270         1.608910        -1.746732
 H         4.173470        -0.101205        -2.120437
 H         2.051531         2.500268        -0.294678
