19
Iteration:  4269
 C        -0.080405        -0.035429        -0.040647
 C         1.379528         0.111255         0.129264
 C         1.871521         0.249311         1.565985
 C         3.375682         0.302107         1.333271
 C         3.273806         0.329268        -0.170094
 C         3.967109         0.920254        -1.407219
 O         2.585947         1.458363        -1.924618
 C         2.081807         1.280616        -0.528125
 O         2.367036        -0.895005        -0.433374
 H        -0.392433        -0.994582        -0.517926
 H        -0.676087         0.048928         0.814459
 H        -0.457231         0.703632        -0.784930
 H         1.520504         1.099502         2.083110
 H         1.632880        -0.646275         2.092108
 H         3.825999         1.115368         1.839865
 H         3.732456        -0.675115         1.723814
 H         4.475746         1.907935        -1.264272
 H         4.529928         0.344773        -2.126231
 H         1.688586         2.263197        -0.234160
