19
Iteration:  1389
 C        -0.054941        -0.240937        -0.258919
 C         1.371853         0.071214         0.149996
 C         2.041392        -0.650102         1.352692
 C         3.570656        -0.376326         0.960849
 C         3.259023         0.394183        -0.278523
 C         3.735907         1.311235        -1.449078
 O         2.430188         2.113938        -1.159020
 C         2.125538         1.523260         0.042270
 O         2.287695        -0.410143        -0.829185
 H        -0.105236        -1.359447        -0.063229
 H        -0.800523         0.344441         0.315878
 H        -0.227516        -0.188191        -1.348509
 H         1.878100        -0.421246         2.523131
 H         1.953634        -1.764425         1.432498
 H         4.231344        -0.092217         1.733097
 H         4.061899        -1.303574         0.568581
 H         4.531291         2.122863        -1.469447
 H         3.836378         0.904374        -2.529006
 H         2.103377         2.226099         0.920380
