19
Iteration:  3482
 C        -0.051030        -0.280021        -0.189303
 C         1.309976         0.110767         0.112721
 C         1.939561         0.105128         1.589794
 C         3.486639         0.129719         1.303609
 C         3.242182         0.293208        -0.250682
 C         3.814672         0.925277        -1.562787
 O         2.583888         1.790459        -1.630621
 C         2.176075         1.373221        -0.285649
 O         2.289698        -0.705079        -0.605586
 H        -0.438923        -0.203115        -1.214518
 H        -0.178480        -1.349811         0.061193
 H        -0.753184         0.219782         0.390545
 H         1.476264         0.972683         2.167022
 H         1.620763        -0.917410         2.016162
 H         4.072858         0.923182         1.737216
 H         3.874363        -0.828192         1.664436
 H         4.632460         1.578884        -1.311615
 H         3.970188         0.299453        -2.393911
 H         2.280115         2.144733         0.539133
