19
Iteration:  2946
 C        -0.025239        -0.145687        -0.294463
 C         1.390656         0.082766         0.110347
 C         2.046006        -0.296991         1.543562
 C         3.567768        -0.227845         1.121791
 C         3.264202         0.339158        -0.257058
 C         3.685521         1.269645        -1.433676
 O         2.430068         1.975687        -1.378429
 C         2.168856         1.384924        -0.096068
 O         2.272134        -0.661204        -0.777061
 H         0.085244        -0.353115        -1.367172
 H        -0.511356        -1.032478         0.136010
 H        -0.882807         0.468911         0.017827
 H         1.613693         0.377038         2.362674
 H         1.825073        -1.426430         1.811324
 H         4.374174         0.437713         1.628264
 H         3.996696        -1.251697         1.171290
 H         4.644209         1.942224        -1.231710
 H         3.775788         0.885001        -2.518359
 H         2.214893         2.151217         0.641521
