19
Iteration:    99
 C        -0.163671        -0.204194        -0.040119
 C         1.351804         0.013369         0.047319
 C         2.062555        -0.780493         1.226466
 C         3.617247        -0.494139         0.832491
 C         3.341344         0.497860        -0.237256
 C         3.821236         1.591191        -1.192395
 O         2.329701         2.041750        -1.161872
 C         2.166681         1.380213         0.108079
 O         2.300988        -0.394100        -1.072469
 H        -0.407941        -1.232011        -0.217418
 H        -0.522536         0.133144         0.962128
 H        -0.616894         0.428839        -0.852218
 H         1.896699        -0.240554         2.167289
 H         1.803540        -1.806212         1.285140
 H         4.059203        -0.006647         1.725643
 H         4.183423        -1.319544         0.538379
 H         4.512139         2.403789        -0.996327
 H         4.114166         1.268190        -2.169945
 H         2.064181         2.073124         0.863037
