19
Iteration:  3287
 C        -0.110786        -0.056869        -0.085669
 C         1.362317         0.069628         0.142401
 C         1.985042        -0.189941         1.539588
 C         3.521594         0.041027         1.268871
 C         3.270654         0.308921        -0.269747
 C         3.804523         1.202417        -1.352730
 O         2.528634         1.746332        -1.709460
 C         2.067881         1.348793        -0.306942
 O         2.367405        -0.783612        -0.716896
 H        -0.730629         0.663811         0.593484
 H        -0.478732         0.222257        -1.121162
 H        -0.565270        -1.041750         0.111788
 H         1.639280         0.650498         2.208325
 H         1.682831        -1.126550         1.757173
 H         4.096359         0.876284         1.750411
 H         4.075490        -0.954345         1.472985
 H         4.572831         1.928262        -0.883651
 H         4.234772         0.601882        -2.132711
 H         1.873861         2.172329         0.318800
