19
Iteration:  4011
 C        -0.109235        -0.175688        -0.148430
 C         1.392156         0.193851         0.105127
 C         1.883754         0.245794         1.577766
 C         3.387286         0.328729         1.411855
 C         3.260869         0.410240        -0.132414
 C         3.961256         0.709615        -1.482131
 O         2.532137         1.371082        -1.866541
 C         2.113302         1.380826        -0.450721
 O         2.354641        -0.677400        -0.472500
 H        -0.085029        -1.159545        -0.640139
 H        -0.688867        -0.106760         0.838041
 H        -0.548896         0.452336        -0.976260
 H         1.401310         1.025083         2.288880
 H         1.775155        -0.727865         2.015502
 H         3.856994         1.252244         1.831543
 H         3.981241        -0.584685         1.768105
 H         4.798163         1.439960        -1.499642
 H         4.278010        -0.079623        -2.184434
 H         1.920781         2.350359        -0.100092
