19
Iteration:  2120
 C        -0.078180        -0.210832        -0.162026
 C         1.382747         0.044977         0.131690
 C         2.073589        -0.494832         1.430580
 C         3.542420        -0.302316         1.059240
 C         3.253769         0.373389        -0.328959
 C         3.744352         1.280045        -1.422320
 O         2.441751         2.095009        -1.244788
 C         2.192811         1.357772         0.032994
 O         2.273977        -0.478338        -0.963049
 H         0.009243        -1.267402        -0.495914
 H        -0.731480        -0.437154         0.720995
 H        -0.501893         0.513144        -0.936307
 H         1.856072         0.109152         2.246972
 H         1.778024        -1.519475         1.560635
 H         4.046631         0.329035         1.724987
 H         4.091580        -1.189993         0.901116
 H         4.414678         2.074441        -1.157735
 H         3.846386         0.930609        -2.438975
 H         1.947953         2.122475         0.799590
