19
Iteration:  2701
 C        -0.110081        -0.197254        -0.134627
 C         1.360734        -0.013573         0.105812
 C         2.076711        -0.520752         1.414347
 C         3.552049        -0.353386         1.041124
 C         3.322584         0.471230        -0.240389
 C         3.775977         1.294752        -1.344009
 O         2.404879         1.982233        -1.362832
 C         2.153321         1.479155        -0.044446
 O         2.283708        -0.432709        -0.924145
 H        -0.759944         0.498962        -0.716734
 H        -0.285528        -1.200122        -0.649034
 H        -0.474358        -0.310962         0.882660
 H         1.725546        -0.079294         2.385426
 H         1.819588        -1.580298         1.476232
 H         4.175847         0.253382         1.733842
 H         4.115558        -1.346072         0.885416
 H         4.451788         2.189203        -0.968424
 H         4.091712         0.765397        -2.284039
 H         2.092040         2.206253         0.761613
