19
Iteration:  2693
 C        -0.095845        -0.238988        -0.178847
 C         1.374043         0.069078         0.105419
 C         2.099529        -0.546655         1.406034
 C         3.611460        -0.369241         1.032367
 C         3.267403         0.450835        -0.202691
 C         3.776079         1.372320        -1.361272
 O         2.424700         1.990287        -1.387602
 C         2.118665         1.459422         0.005246
 O         2.256300        -0.440766        -0.909133
 H        -0.509572         0.523419        -0.819897
 H        -0.318538        -1.310574        -0.419782
 H        -0.723603        -0.226415         0.701252
 H         1.679324         0.064693         2.283277
 H         1.949289        -1.654053         1.720342
 H         4.154744         0.140358         1.933747
 H         3.946440        -1.408752         0.904979
 H         4.686003         1.954140        -1.303351
 H         3.828990         0.651128        -2.223081
 H         2.140808         2.226435         0.783758
