19
Iteration:   934
 C        -0.141856        -0.176585        -0.137490
 C         1.328958         0.006328         0.081265
 C         2.121509        -0.640504         1.299618
 C         3.674496        -0.303114         1.088353
 C         3.280405         0.417623        -0.276064
 C         3.751457         1.393386        -1.352804
 O         2.466675         1.983661        -1.302748
 C         2.136400         1.348264         0.095880
 O         2.208849        -0.343324        -0.963271
 H        -0.114392        -1.164053        -0.627545
 H        -0.635302        -0.347101         0.820956
 H        -0.632513         0.560833        -0.795996
 H         1.718872         0.000108         2.187077
 H         1.778900        -1.688327         1.286933
 H         4.131992         0.259367         1.946419
 H         4.292017        -1.164205         0.800429
 H         4.509208         2.144457        -1.244050
 H         3.807643         0.755757        -2.242369
 H         2.063969         1.965759         1.031164
