19
Iteration:  1765charge 0 multiplicity 1
 C        -0.141376        -0.152538        -0.090327
 C         1.381578         0.000235         0.078832
 C         2.094462        -0.607060         1.507869
 C         3.638003        -0.236144         0.956770
 C         3.251039         0.375496        -0.366535
 C         3.828536         1.498694        -1.267282
 O         2.451475         2.105989        -1.248898
 C         2.071345         1.263686        -0.037606
 O         2.218042        -0.614660        -1.060257
 H        -0.548926        -1.134491         0.273064
 H        -0.675176         0.572858         0.522277
 H        -0.295291         0.082785        -1.204673
 H         1.717173        -0.150294         2.367331
 H         2.047086        -1.661450         1.614333
 H         3.963199         0.497459         1.656717
 H         4.393455        -1.000126         1.064023
 H         4.569738         2.070822        -0.762153
 H         4.141562         1.241530        -2.259122
 H         2.033973         2.013246         0.778938
