19
Iteration:  2282charge 0 multiplicity 1
 C        -0.119591        -0.186518        -0.072266
 C         1.394008         0.043031         0.054575
 C         2.027607        -0.573568         1.393472
 C         3.535007        -0.284859         0.992845
 C         3.308037         0.404605        -0.277968
 C         3.784427         1.430004        -1.353671
 O         2.455083         2.009973        -1.282389
 C         2.107592         1.396111        -0.016661
 O         2.298195        -0.508194        -0.971479
 H        -0.298085        -1.141349        -0.546235
 H        -0.617848        -0.357021         0.851436
 H        -0.431918         0.592801        -0.689234
 H         1.815168        -0.068235         2.367391
 H         1.845265        -1.681732         1.442456
 H         4.040669         0.221370         1.894153
 H         3.984626        -1.281314         1.056625
 H         4.538017         2.114975        -1.010472
 H         3.975254         0.905361        -2.294108
 H         2.196826         2.031615         0.832736
