19
Iteration:  2574charge 0 multiplicity 1
 C        -0.134794        -0.249108        -0.068446
 C         1.275314         0.054729         0.145476
 C         2.023987        -0.583402         1.406275
 C         3.581057        -0.352388         1.056520
 C         3.326922         0.468843        -0.288008
 C         3.764988         1.407860        -1.335688
 O         2.439606         1.955761        -1.442726
 C         2.181456         1.411492         0.008631
 O         2.310398        -0.413097        -0.951496
 H        -0.251336        -0.434650        -1.160395
 H        -0.444296        -1.092141         0.658542
 H        -0.842234         0.560812         0.209707
 H         1.717372        -0.273011         2.444733
 H         1.997319        -1.731271         1.327617
 H         4.043143         0.188303         1.954800
 H         4.019162        -1.292114         0.802938
 H         4.519603         2.241974        -0.876549
 H         4.178874         1.089494        -2.383177
 H         2.378690         2.273511         0.718382
