19
Iteration:  1974charge 0 multiplicity 1
 C        -0.107458        -0.148876        -0.273971
 C         1.384409         0.016278         0.078835
 C         2.152616        -0.399418         1.403855
 C         3.587806        -0.347640         0.998981
 C         3.230033         0.294057        -0.332426
 C         3.667393         1.422106        -1.334253
 O         2.367279         2.084781        -1.167512
 C         2.225453         1.379918         0.047607
 O         2.294283        -0.602864        -0.939246
 H        -0.419807        -1.203384         0.086506
 H        -0.852406         0.547188         0.194206
 H        -0.110960        -0.346689        -1.336462
 H         1.954163         0.240313         2.211484
 H         1.784666        -1.333020         1.754767
 H         4.323902         0.201195         1.682415
 H         4.062175        -1.324158         0.940480
 H         4.566237         2.035468        -1.004355
 H         3.952184         1.011808        -2.315703
 H         2.014337         1.970560         0.925595
