19
Iteration:  1466
 C        -0.128820        -0.131881        -0.038079
 C         1.382300         0.090420        -0.012295
 C         2.088003        -0.686778         1.365782
 C         3.590208        -0.374303         1.044707
 C         3.255557         0.412610        -0.282198
 C         3.792371         1.492676        -1.296147
 O         2.396760         2.018968        -1.325732
 C         2.061163         1.400882        -0.095944
 O         2.318041        -0.507183        -0.915116
 H        -0.184547        -1.251810        -0.086370
 H        -0.413491         0.298090         0.959669
 H        -0.446882         0.471838        -0.895982
 H         1.981832        -0.372142         2.485726
 H         1.817407        -1.777759         1.245574
 H         4.242014         0.074030         1.785436
 H         4.023818        -1.385684         0.793290
 H         4.428174         2.095446        -0.639350
 H         4.227879         1.199300        -2.294452
 H         1.938496         2.126391         0.755637
