19
Iteration:  3038
 C        -0.076775        -0.228556        -0.077678
 C         1.356537         0.123082         0.049529
 C         2.006397        -0.266418         1.474934
 C         3.546423        -0.212391         1.189530
 C         3.287304         0.399942        -0.248343
 C         3.823600         1.194667        -1.354631
 O         2.483281         1.889990        -1.548320
 C         2.124791         1.388606        -0.150649
 O         2.244202        -0.587537        -0.837175
 H        -0.779991         0.294708         0.537123
 H        -0.351340        -0.053294        -1.093732
 H        -0.236224        -1.262887         0.070848
 H         1.810314         0.314291         2.409761
 H         1.733134        -1.222197         1.781701
 H         3.956841         0.569680         1.782687
 H         4.161295        -1.117912         1.300862
 H         4.664821         1.981130        -1.008090
 H         4.117061         0.722258        -2.282302
 H         2.009840         2.247412         0.560495
