19
Iteration:    79
 C        -0.102037        -0.265389        -0.114908
 C         1.384077         0.059786         0.124805
 C         2.139026        -0.788476         1.239444
 C         3.623286        -0.469208         0.903344
 C         3.240492         0.423524        -0.299350
 C         3.696560         1.466756        -1.272864
 O         2.433515         2.113959        -1.161523
 C         2.104709         1.342930         0.155284
 O         2.249274        -0.237819        -1.042551
 H        -0.310338        -1.244501         0.182274
 H        -0.685312         0.496852         0.421245
 H        -0.188771        -0.119286        -1.211060
 H         1.832278        -0.549685         2.290110
 H         2.000862        -1.761258         0.967634
 H         4.259361         0.000095         1.719692
 H         4.021746        -1.395481         0.633589
 H         4.520369         2.065938        -0.783064
 H         4.021053         1.277786        -2.242243
 H         2.111408         2.091716         0.952301
