19
Iteration:  3396charge 0 multiplicity 1
 C        -0.155457        -0.074455        -0.185206
 C         1.414468         0.079711         0.090850
 C         1.975504        -0.062745         1.578633
 C         3.499255         0.142859         1.298080
 C         3.328667         0.312342        -0.226676
 C         3.749171         1.081304        -1.395837
 O         2.506691         1.657975        -1.644400
 C         2.172953         1.320197        -0.326575
 O         2.319245        -0.775989        -0.687332
 H        -0.356849        -1.104188        -0.580249
 H        -0.665748         0.099442         0.778010
 H        -0.423535         0.660766        -0.890086
 H         1.460423         0.654912         2.284103
 H         1.854180        -1.019959         1.955829
 H         4.025840         1.060258         1.596811
 H         3.993911        -0.736392         1.808601
 H         4.491436         1.942304        -1.130437
 H         4.049313         0.582806        -2.270349
 H         2.091565         2.237702         0.242630
