19
Iteration:  3214charge 0 multiplicity 1
 C        -0.013828        -0.227119        -0.215786
 C         1.326348         0.109119         0.181031
 C         1.936315        -0.163270         1.560813
 C         3.516980        -0.096876         1.120492
 C         3.259213         0.426216        -0.213718
 C         3.772469         1.086716        -1.467060
 O         2.582708         1.830973        -1.646270
 C         2.104419         1.456684        -0.077622
 O         2.281757        -0.654535        -0.662986
 H        -0.296970         0.047731        -1.194845
 H         0.030289        -1.329303        -0.278323
 H        -0.839495         0.003768         0.426661
 H         1.645948         0.672576         2.272794
 H         1.816518        -1.218646         1.885200
 H         3.982309         0.607793         1.808040
 H         4.009469        -1.057820         1.171784
 H         4.674689         1.687820        -1.521685
 H         3.748640         0.360510        -2.299736
 H         2.122366         2.404756         0.514216
