19
Iteration:  2557
 C        -0.086425        -0.255294        -0.128544
 C         1.431898         0.069083         0.090673
 C         2.073751        -0.515661         1.376549
 C         3.573313        -0.348046         1.003553
 C         3.251006         0.431868        -0.281522
 C         3.799428         1.349980        -1.334712
 O         2.407421         2.032883        -1.291297
 C         2.119563         1.418460        -0.045971
 O         2.269357        -0.508634        -0.904676
 H        -0.272961        -0.250485        -1.188597
 H        -0.317284        -1.181265         0.308118
 H        -0.668032         0.578191         0.362033
 H         1.714563         0.115260         2.238568
 H         1.588670        -1.415040         1.644920
 H         4.126846         0.280580         1.657527
 H         4.211082        -1.268435         0.920443
 H         4.452781         2.084558        -1.000444
 H         3.926394         0.832313        -2.228194
 H         2.005365         2.138535         0.751594
