19
Iteration:  4875
 C        -0.073663        -0.214817        -0.218299
 C         1.365217         0.220474         0.187679
 C         1.899440         0.171998         1.676531
 C         3.447049         0.177411         1.433829
 C         3.290702         0.469263        -0.144795
 C         3.880028         0.678760        -1.532350
 O         2.522597         1.453673        -1.949132
 C         2.143575         1.460768        -0.398604
 O         2.342367        -0.611206        -0.446087
 H        -0.125166        -1.337505        -0.328116
 H        -0.693133         0.081751         0.578480
 H        -0.314187         0.307204        -1.126741
 H         1.268824         0.982709         2.208986
 H         1.593722        -0.933175         1.989216
 H         4.017529         0.991804         1.934186
 H         3.864878        -0.786489         1.527355
 H         4.690009         1.407472        -1.783298
 H         3.965709        -0.194220        -2.176670
 H         2.016711         2.523496        -0.055114
