19
Iteration:  1311
 C        -0.127101        -0.180560        -0.098155
 C         1.414710        -0.001858         0.075497
 C         2.091385        -0.649184         1.344176
 C         3.566010        -0.328256         0.962071
 C         3.264119         0.399453        -0.318519
 C         3.889872         1.453521        -1.283663
 O         2.424456         2.085045        -1.241095
 C         2.108134         1.385120        -0.038824
 O         2.219433        -0.559825        -0.943711
 H        -0.556634        -1.059300        -0.628445
 H        -0.601035        -0.219729         0.881275
 H        -0.619784         0.692682        -0.552970
 H         1.743278        -0.034640         2.255564
 H         1.824721        -1.654984         1.510559
 H         3.873875         0.366674         1.732869
 H         4.365762        -0.939645         0.734538
 H         4.621678         2.102533        -0.674330
 H         4.215334         1.449740        -2.311684
 H         1.890891         2.055262         0.787496
