19
Iteration:  3281
 C        -0.106396        -0.041821        -0.079963
 C         1.393006         0.075600         0.122701
 C         1.975391        -0.169306         1.531411
 C         3.521670         0.033005         1.266891
 C         3.273475         0.321155        -0.271477
 C         3.818765         1.193674        -1.369833
 O         2.502131         1.734637        -1.694712
 C         2.041009         1.371218        -0.273016
 O         2.374366        -0.803124        -0.726347
 H        -0.574273         0.752095         0.440341
 H        -0.259658         0.064738        -1.150638
 H        -0.598654        -0.967525         0.253907
 H         1.450289         0.444247         2.286067
 H         1.610709        -1.253151         1.819198
 H         4.024662         0.890969         1.712078
 H         4.075256        -0.853205         1.432566
 H         4.570654         1.786241        -0.894552
 H         4.313444         0.628293        -2.191866
 H         1.911551         2.285731         0.392188
