19
Iteration:   160
 C        -0.147337        -0.269408        -0.238333
 C         1.372700         0.033512         0.058932
 C         2.168158        -0.623142         1.287629
 C         3.697507        -0.369680         0.952054
 C         3.276387         0.357124        -0.322129
 C         3.713896         1.432840        -1.352132
 O         2.410999         2.159548        -1.054216
 C         2.168795         1.341921         0.179137
 O         2.171524        -0.369287        -0.996983
 H        -0.151156        -0.374937        -1.386766
 H        -0.577418        -1.175178         0.187255
 H        -0.752072         0.570407         0.051747
 H         1.695860        -0.407471         2.233254
 H         2.092394        -1.787096         1.238854
 H         4.335590         0.175329         1.624296
 H         4.137319        -1.449260         0.800788
 H         4.554526         1.978446        -0.934351
 H         3.626296         1.033828        -2.399825
 H         2.258723         2.073570         1.121445
