19
Iteration:  3795charge 0 multiplicity 1
 C        -0.064866        -0.193651        -0.220321
 C         1.300700         0.193652         0.099284
 C         1.883606         0.218575         1.617894
 C         3.454635         0.130536         1.373454
 C         3.239984         0.375084        -0.110800
 C         3.913897         0.841926        -1.527546
 O         2.567201         1.487896        -1.852526
 C         2.135531         1.389021        -0.428788
 O         2.342688        -0.648861        -0.452152
 H        -0.752837         0.625831        -0.126691
 H        -0.191670        -0.837828        -1.143216
 H        -0.407662        -0.854791         0.611992
 H         1.689474         1.061953         2.294133
 H         1.459807        -0.757755         2.148647
 H         4.068183         0.950140         1.797963
 H         3.997634        -0.828117         1.600268
 H         4.678861         1.508462        -1.413292
 H         4.135711        -0.074976        -2.170891
 H         1.953151         2.408426         0.125102
