19
Iteration:  4477charge 0 multiplicity 1
 C        -0.211508        -0.239491        -0.217417
 C         1.275326         0.132788         0.175636
 C         1.883802         0.266214         1.717779
 C         3.451594         0.345817         1.281516
 C         3.285297         0.274384        -0.225625
 C         3.870779         0.823731        -1.603119
 O         2.670123         1.641549        -1.792513
 C         2.188630         1.344074        -0.387912
 O         2.326462        -0.872895        -0.414682
 H        -0.585396        -0.882483         0.563659
 H        -0.868762         0.678390        -0.509921
 H         0.024012        -0.851534        -1.058518
 H         1.510202         1.287675         2.197308
 H         1.601704        -0.556600         2.377531
 H         3.975570         1.254300         1.394316
 H         3.991266        -0.500886         1.774030
 H         4.720058         1.611844        -1.481808
 H         4.108502         0.085521        -2.394966
 H         2.202126         2.283201         0.057605
