19
Iteration:  1615charge 0 multiplicity 1
 C        -0.145162        -0.187510        -0.006447
 C         1.373177         0.092144         0.113147
 C         2.037772        -0.687775         1.243368
 C         3.629281        -0.392299         1.042255
 C         3.315826         0.427376        -0.221209
 C         3.793161         1.408453        -1.307632
 O         2.350421         1.999624        -1.374575
 C         2.114800         1.481136        -0.031693
 O         2.338756        -0.455802        -0.918653
 H        -0.372306        -1.225797         0.218899
 H        -0.670986         0.623789         0.473694
 H        -0.365476        -0.132337        -1.071202
 H         1.880852        -0.287500         2.286037
 H         1.794262        -1.729124         1.125347
 H         4.014582         0.093172         1.980717
 H         4.132947        -1.338359         0.800961
 H         4.479125         2.293560        -1.038891
 H         4.124398         1.161551        -2.304732
 H         2.073692         2.250190         0.730481
