19
Iteration:  3051charge 0 multiplicity 1
 C        -0.052945        -0.214033        -0.191523
 C         1.383250         0.058109         0.091774
 C         1.982263        -0.233516         1.540630
 C         3.550027        -0.149996         1.111898
 C         3.267038         0.287491        -0.240337
 C         3.783354         1.208896        -1.413360
 O         2.486548         1.913567        -1.437743
 C         2.103314         1.426999        -0.186663
 O         2.295146        -0.626094        -0.780244
 H        -0.415947         0.079121         0.787663
 H        -0.483562         0.373124        -1.028377
 H        -0.175009        -1.266982        -0.219081
 H         1.621052         0.623063         2.011162
 H         1.545617        -1.110216         1.944443
 H         4.169749         0.490764         1.670815
 H         3.969615        -1.115991         1.095245
 H         4.563225         1.985885        -1.172947
 H         4.052150         0.600431        -2.275048
 H         1.997725         2.230319         0.615519
