19
Iteration:  1666charge 0 multiplicity 1
 C        -0.140408        -0.243388        -0.218068
 C         1.377189        -0.032962         0.036685
 C         2.111131        -0.438459         1.426142
 C         3.607779        -0.265114         1.019284
 C         3.245581         0.314100        -0.376852
 C         3.702613         1.389942        -1.385092
 O         2.428882         2.186834        -1.168017
 C         2.220724         1.322546         0.041656
 O         2.228172        -0.583956        -0.904852
 H        -0.257349        -1.258544        -0.563314
 H        -0.689902         0.025284         0.698216
 H        -0.539517         0.358240        -1.071535
 H         2.005446         0.067124         2.401128
 H         1.953866        -1.513375         1.486111
 H         4.214058         0.406764         1.551288
 H         3.963551        -1.226279         1.088047
 H         4.538945         1.927829        -1.016881
 H         3.960088         1.207115        -2.434982
 H         2.383267         1.907932         0.997635
