19
Iteration:  3379charge 0 multiplicity 1
 C        -0.044371        -0.156159        -0.213072
 C         1.350789         0.095784         0.067815
 C         1.947838        -0.033104         1.573996
 C         3.516632         0.091846         1.264283
 C         3.250152         0.311691        -0.230512
 C         3.841969         0.975066        -1.511028
 O         2.489123         1.785896        -1.610144
 C         2.109076         1.387978        -0.226659
 O         2.350902        -0.751538        -0.609722
 H        -0.230699        -1.221412        -0.244125
 H        -0.690148         0.316459         0.545678
 H        -0.466846         0.281686        -1.192538
 H         1.644280         0.761610         2.249600
 H         1.514900        -1.031458         2.083799
 H         3.815201         1.028442         1.767255
 H         4.124976        -0.781762         1.415705
 H         4.706665         1.598130        -1.413739
 H         4.067099         0.305112        -2.418638
 H         1.960131         2.204946         0.518425
