19
Iteration:   306charge 0 multiplicity 1
 C        -0.034225        -0.249589        -0.241035
 C         1.378485         0.071026         0.147649
 C         2.080387        -0.671816         1.350496
 C         3.601153        -0.468097         1.057591
 C         3.339450         0.485659        -0.277551
 C         3.639854         1.350074        -1.441366
 O         2.439617         2.115031        -1.190540
 C         2.141585         1.416206         0.141824
 O         2.266259        -0.400861        -0.982390
 H        -0.621287        -0.903907         0.388409
 H        -0.709527         0.571201        -0.437011
 H        -0.005730        -0.714943        -1.240119
 H         1.957309        -0.062452         2.296981
 H         1.670258        -1.626247         1.536891
 H         3.972574         0.268299         1.804440
 H         4.083825        -1.365897         0.933288
 H         4.440516         2.010522        -1.277108
 H         3.736237         1.051140        -2.490775
 H         1.970173         2.256738         0.899051
