19
Iteration:  4168charge 0 multiplicity 1
 C        -0.052375        -0.178210        -0.188527
 C         1.387554         0.130920         0.093446
 C         1.853007         0.327432         1.559452
 C         3.428917         0.233128         1.327245
 C         3.293099         0.341042        -0.203410
 C         3.837193         0.814596        -1.467269
 O         2.534875         1.501341        -1.759895
 C         2.158474         1.286520        -0.432200
 O         2.352054        -0.756875        -0.436025
 H        -0.516094        -0.896364         0.563126
 H        -0.599277         0.777555        -0.119805
 H        -0.220773        -0.563564        -1.205758
 H         1.616975         1.322577         1.908245
 H         1.529224        -0.456530         2.348077
 H         3.971342         1.161558         1.749098
 H         3.962900        -0.597121         1.742499
 H         4.606374         1.609959        -1.317831
 H         4.030657         0.099205        -2.319315
 H         2.108738         2.241815         0.012995
