19
Iteration:  3069charge 0 multiplicity 1
 C        -0.133030        -0.213714        -0.194109
 C         1.369530         0.026303         0.100118
 C         1.986296        -0.122471         1.539321
 C         3.498399        -0.174056         1.153761
 C         3.283985         0.391806        -0.295205
 C         3.750890         1.179062        -1.488512
 O         2.484948         1.967524        -1.442212
 C         2.149275         1.329406        -0.091833
 O         2.380040        -0.705464        -0.755370
 H        -0.951245        -0.178687         0.538771
 H        -0.372516         0.597841        -0.842628
 H        -0.192336        -1.024613        -0.923054
 H         1.849245         0.751276         2.332423
 H         1.874619        -1.112839         1.939815
 H         4.077499         0.451260         1.864643
 H         3.997294        -1.218476         1.115261
 H         4.648855         1.929640        -1.337669
 H         3.823640         0.693989        -2.464080
 H         2.089565         2.017588         0.749512
