19
Iteration:  3886
 C        -0.096468        -0.226344        -0.185030
 C         1.352724         0.210008         0.133047
 C         1.900996         0.154317         1.642010
 C         3.428821         0.241286         1.362696
 C         3.233331         0.460252        -0.126044
 C         3.825281         0.724462        -1.445333
 O         2.633894         1.404649        -1.825474
 C         2.147295         1.508634        -0.461934
 O         2.338819        -0.672069        -0.521890
 H        -0.527021        -0.593853         0.773320
 H        -0.544210         0.597860        -0.730481
 H         0.061058        -0.985522        -0.935952
 H         1.517297         1.012420         2.284884
 H         1.692592        -0.832541         2.238882
 H         3.972689         1.083035         1.761593
 H         3.963758        -0.613490         1.613642
 H         4.603746         1.386971        -1.608657
 H         3.861532        -0.114588        -2.085128
 H         1.884063         2.551056        -0.295589
