19
Iteration:  4249charge 0 multiplicity 1
 C        -0.169365        -0.071882        -0.097244
 C         1.337506         0.116762         0.062943
 C         1.812781         0.155082         1.619663
 C         3.450900         0.343594         1.448003
 C         3.325041         0.319782        -0.194728
 C         3.857888         0.893738        -1.489204
 O         2.635043         1.426257        -1.912264
 C         2.136242         1.298694        -0.520313
 O         2.402022        -0.779687        -0.419505
 H        -0.608361        -0.986085        -0.414239
 H        -0.648953         0.001416         0.887228
 H        -0.640337         0.643213        -0.771827
 H         1.386133         1.005144         2.150846
 H         1.476613        -0.705317         2.044277
 H         3.817869         1.319749         1.662407
 H         4.045965        -0.531074         1.828011
 H         4.719537         1.722615        -1.257735
 H         4.236061         0.276409        -2.324798
 H         2.167912         2.311257         0.040722
