19
Iteration:  1128
 C        -0.072338        -0.192854        -0.239633
 C         1.376432         0.063373         0.157657
 C         2.023053        -0.538985         1.404565
 C         3.689497        -0.312544         0.995541
 C         3.248350         0.362102        -0.350467
 C         3.720716         1.485276        -1.353814
 O         2.435753         2.089182        -1.158317
 C         2.162968         1.377504         0.003210
 O         2.208603        -0.610205        -0.958192
 H        -0.050119        -1.158904        -0.770994
 H        -0.714862        -0.230552         0.640865
 H        -0.417470         0.586769        -0.930603
 H         1.957089        -0.162483         2.423441
 H         1.812988        -1.550488         1.386549
 H         4.233969         0.254133         1.783314
 H         4.142790        -1.338813         0.986088
 H         4.639456         1.984104        -1.137337
 H         3.746880         1.111090        -2.368242
 H         2.096462         2.024016         0.941844
