19
Iteration:   929charge 0 multiplicity 1
 C        -0.127783        -0.183667        -0.083652
 C         1.341741         0.027925         0.093678
 C         2.100701        -0.627679         1.291924
 C         3.661633        -0.303799         1.083493
 C         3.244189         0.455849        -0.272044
 C         3.748983         1.379649        -1.342170
 O         2.452181         2.019987        -1.291053
 C         2.140568         1.298472         0.044261
 O         2.247159        -0.377790        -1.000088
 H        -0.164472        -1.151602        -0.646715
 H        -0.698496        -0.297564         0.854502
 H        -0.500242         0.618121        -0.737625
 H         1.694005        -0.151378         2.156253
 H         1.764506        -1.668663         1.412889
 H         4.047212         0.302785         1.905310
 H         4.196913        -1.249888         0.918775
 H         4.591336         2.144757        -1.171641
 H         3.933939         0.806426        -2.277039
 H         2.170216         1.923969         0.947704
