19
Iteration:  2075
 C        -0.102226        -0.220693        -0.168911
 C         1.352518         0.089861         0.099659
 C         2.071942        -0.457931         1.438924
 C         3.616795        -0.350519         0.974107
 C         3.261191         0.348083        -0.328525
 C         3.781863         1.377063        -1.348628
 O         2.456235         2.079838        -1.247094
 C         2.027651         1.390926        -0.053970
 O         2.318697        -0.544887        -0.894344
 H        -0.298605        -1.205168        -0.675710
 H        -0.667508        -0.582978         0.743154
 H        -0.603432         0.693519        -0.603077
 H         1.816953         0.256680         2.135752
 H         1.926971        -1.475368         1.798339
 H         4.292267         0.200366         1.638216
 H         3.981122        -1.328995         0.804696
 H         4.680236         1.882421        -0.922470
 H         3.827395         0.960781        -2.370352
 H         2.074785         2.028496         0.854577
