19
Iteration:  4556
 C        -0.076811        -0.088467        -0.111196
 C         1.338767         0.238726         0.128364
 C         1.873377         0.125314         1.579889
 C         3.502726         0.304943         1.393317
 C         3.280450         0.478662        -0.122402
 C         3.908790         0.858587        -1.454070
 O         2.578012         1.299861        -1.911107
 C         2.086222         1.385931        -0.508527
 O         2.276378        -0.784855        -0.458688
 H        -0.067644        -1.140249        -0.385496
 H        -0.555058        -0.055671         0.924162
 H        -0.534844         0.464556        -0.972839
 H         1.714844         0.972162         2.347333
 H         1.443241        -0.832241         1.846534
 H         3.964759         1.203930         1.926271
 H         4.003261        -0.639045         1.646654
 H         4.726540         1.684430        -1.335652
 H         4.255167         0.099315        -2.209293
 H         1.965125         2.434204        -0.247836
