19
Iteration:  1001charge 0 multiplicity 1
 C        -0.185365        -0.165748        -0.160040
 C         1.357647         0.020079         0.080401
 C         2.097573        -0.482828         1.343864
 C         3.629160        -0.342211         1.012642
 C         3.287092         0.323209        -0.323955
 C         3.745386         1.424672        -1.301269
 O         2.394912         2.120627        -1.164801
 C         2.088657         1.231201         0.041075
 O         2.373185        -0.511468        -1.033150
 H        -0.471597        -1.176611         0.107114
 H        -0.653048         0.503792         0.607678
 H        -0.436730         0.108627        -1.181933
 H         1.860709         0.230262         2.168518
 H         1.893406        -1.558232         1.784302
 H         4.183892         0.289854         1.690622
 H         4.071948        -1.355031         0.732869
 H         4.584808         2.074452        -1.012539
 H         3.756922         1.175666        -2.391678
 H         2.224249         1.965894         0.841187
