19
Iteration:  4165charge 0 multiplicity 1
 C        -0.081209        -0.169250        -0.186433
 C         1.421584         0.115478         0.076491
 C         1.888532         0.311719         1.566997
 C         3.410890         0.249367         1.331355
 C         3.284527         0.323261        -0.185152
 C         3.853422         0.822005        -1.457086
 O         2.517482         1.505045        -1.770276
 C         2.158911         1.293057        -0.432384
 O         2.352529        -0.772958        -0.455281
 H        -0.477360        -0.825506         0.607310
 H        -0.639717         0.868194        -0.124921
 H        -0.199332        -0.600755        -1.203457
 H         1.678513         1.400425         1.931314
 H         1.511864        -0.434728         2.360928
 H         3.872639         1.237095         1.709972
 H         3.921434        -0.622227         1.819939
 H         4.583640         1.556122        -1.292634
 H         4.054145         0.156384        -2.299099
 H         2.085938         2.277238         0.023907
