19
Iteration:  3001charge 0 multiplicity 1
 C        -0.128806        -0.158792        -0.018674
 C         1.345740         0.074503         0.091220
 C         2.009413        -0.479195         1.428400
 C         3.534205        -0.159267         1.136022
 C         3.291219         0.487305        -0.178320
 C         3.872808         1.231573        -1.393103
 O         2.476867         1.870337        -1.599650
 C         2.096747         1.431828        -0.167081
 O         2.296114        -0.569130        -0.794630
 H        -0.596924         0.825284        -0.235610
 H        -0.341804        -0.860672        -0.865171
 H        -0.447326        -0.630204         0.959238
 H         1.677352         0.057003         2.392854
 H         1.642979        -1.563725         1.269001
 H         3.806235         0.659073         1.913950
 H         4.246779        -1.028068         1.286422
 H         4.746268         1.818735        -0.919337
 H         4.231740         0.580828        -2.244703
 H         1.957731         2.288901         0.454207
