19
Iteration:  2565charge 0 multiplicity 1
 C        -0.110206        -0.249333        -0.075465
 C         1.383323         0.064113         0.128621
 C         2.013286        -0.582755         1.379465
 C         3.565054        -0.319509         1.007843
 C         3.306022         0.383119        -0.222972
 C         3.794863         1.405404        -1.290319
 O         2.375947         2.011373        -1.390708
 C         2.202915         1.443656        -0.041821
 O         2.282485        -0.461283        -0.935186
 H        -0.277457        -0.425573        -1.130033
 H        -0.434479        -1.226929         0.320278
 H        -0.845400         0.579891         0.213818
 H         1.907699         0.047977         2.205881
 H         1.745343        -1.653491         1.557610
 H         4.168888         0.292004         1.701590
 H         4.066518        -1.219356         0.806894
 H         4.703485         2.095453        -1.092770
 H         4.006013         0.869013        -2.270831
 H         2.104754         2.212888         0.769136
