19
Iteration:   193charge 0 multiplicity 1
 C         0.000514        -0.245389        -0.193669
 C         1.407318        -0.006711         0.108578
 C         2.054964        -0.751602         1.288264
 C         3.552420        -0.474081         0.963997
 C         3.302732         0.525358        -0.242394
 C         3.671789         1.472122        -1.396266
 O         2.406710         2.208504        -1.192613
 C         2.159508         1.445191         0.130856
 O         2.260079        -0.437205        -0.907710
 H        -0.470408         0.436350        -0.918347
 H        -0.156051        -1.251958        -0.544319
 H        -0.615833        -0.092072         0.694614
 H         1.684908        -0.366117         2.219768
 H         1.853140        -1.877216         1.159423
 H         4.253938        -0.139784         1.701582
 H         3.916048        -1.453428         0.492435
 H         4.643246         1.944184        -1.353111
 H         3.722703         0.956658        -2.379774
 H         2.252666         2.046527         1.121620
