19
Iteration:   776charge 0 multiplicity 1
 C        -0.139489        -0.148001        -0.127122
 C         1.318948        -0.026409         0.073350
 C         2.090888        -0.590234         1.351690
 C         3.627181        -0.237873         0.917243
 C         3.312573         0.328611        -0.369205
 C         3.817114         1.441415        -1.239719
 O         2.372502         2.066629        -1.192239
 C         2.139042         1.287759        -0.006213
 O         2.278087        -0.530623        -0.953783
 H        -0.755472        -1.006035         0.297840
 H        -0.541618         0.848117         0.343123
 H        -0.506320         0.036439        -1.171605
 H         1.800229        -0.143168         2.301389
 H         1.911259        -1.725742         1.522097
 H         4.126012         0.510727         1.530757
 H         4.414368        -1.063710         1.002152
 H         4.460162         2.154807        -0.714285
 H         4.104267         1.319147        -2.299772
 H         2.125905         1.930481         0.814684
