19
Iteration:  4336charge 0 multiplicity 1
 C        -0.071779        -0.267949        -0.176800
 C         1.367933         0.211845         0.171423
 C         1.777428         0.178324         1.600736
 C         3.417240         0.289293         1.317134
 C         3.319160         0.433836        -0.182776
 C         3.804092         0.654830        -1.574949
 O         2.615564         1.547658        -1.838785
 C         2.187959         1.490784        -0.421892
 O         2.366543        -0.735257        -0.369823
 H        -0.140317        -1.310878         0.078352
 H        -0.803694         0.418079         0.382911
 H        -0.272162        -0.099128        -1.229701
 H         1.447346         1.032974         2.161290
 H         1.497953        -0.719423         1.996804
 H         3.956639         1.136489         1.776790
 H         3.815665        -0.752510         1.597026
 H         4.823997         1.161846        -1.556635
 H         3.852977        -0.220712        -2.213885
 H         2.038190         2.550566         0.043831
