19
Iteration:  3216charge 0 multiplicity 1
 C        -0.013263        -0.233998        -0.229845
 C         1.337300         0.118653         0.176199
 C         1.941808        -0.169555         1.569373
 C         3.508016        -0.085811         1.121018
 C         3.274026         0.421079        -0.223768
 C         3.773590         1.074411        -1.450729
 O         2.573134         1.827503        -1.644385
 C         2.093537         1.451494        -0.080092
 O         2.279593        -0.641511        -0.647896
 H        -0.278826         0.163806        -1.183326
 H         0.066116        -1.326004        -0.357054
 H        -0.797094         0.003375         0.535823
 H         1.632436         0.619078         2.212937
 H         1.809352        -1.297404         1.863977
 H         3.960475         0.570294         1.842348
 H         3.989277        -1.011258         1.137994
 H         4.723180         1.709739        -1.586185
 H         3.667034         0.314869        -2.346112
 H         2.152045         2.462139         0.465704
