19
Iteration:  2493
 C        -0.029699        -0.196759        -0.194036
 C         1.391602         0.106993         0.123884
 C         2.073048        -0.502969         1.455489
 C         3.575166        -0.270072         1.063529
 C         3.312772         0.352251        -0.304684
 C         3.670472         1.282488        -1.386915
 O         2.419114         2.020559        -1.283258
 C         2.144700         1.437964        -0.045182
 O         2.265278        -0.506618        -0.894303
 H        -0.637851         0.566613        -0.685090
 H        -0.021040        -0.950263        -0.930449
 H        -0.628188        -0.488958         0.690986
 H         1.468208        -0.114475         2.423103
 H         1.896221        -1.534321         1.261092
 H         4.121031         0.353300         1.750250
 H         4.231935        -1.277386         1.074295
 H         4.493117         1.987921        -1.272327
 H         3.846229         0.650298        -2.247620
 H         2.168562         2.176032         0.727449
