19
Iteration:   901
 C        -0.078572        -0.148713        -0.045489
 C         1.397306         0.019820        -0.006624
 C         2.037483        -0.613646         1.315035
 C         3.569141        -0.326181         0.987969
 C         3.241153         0.321406        -0.419125
 C         3.717321         1.533874        -1.288133
 O         2.467059         2.159188        -1.260931
 C         2.135152         1.380262        -0.017989
 O         2.333272        -0.659336        -0.872081
 H        -0.338791        -1.202511        -0.225511
 H        -0.385890         0.072768         0.983955
 H        -0.660323         0.511950        -0.710141
 H         1.628712        -0.095082         2.293491
 H         1.685293        -1.625633         1.482692
 H         4.084531         0.301501         1.775440
 H         4.057448        -1.282957         0.886677
 H         4.510694         2.100475        -0.818515
 H         4.056285         1.328747        -2.292942
 H         1.878841         1.996396         0.931048
