19
Iteration:  4697charge 0 multiplicity 1
 C        -0.138219        -0.001315        -0.122962
 C         1.356184         0.053839         0.110164
 C         1.846994         0.202945         1.572787
 C         3.405582         0.327550         1.300878
 C         3.301160         0.342747        -0.219701
 C         3.900689         0.981031        -1.559327
 O         2.570657         1.422793        -1.816518
 C         2.158892         1.299491        -0.405182
 O         2.383993        -0.887636        -0.400996
 H        -0.619593        -0.575766         0.605777
 H        -0.546510         1.026201        -0.035269
 H        -0.258653        -0.490958        -1.102773
 H         1.270591         0.965896         2.257612
 H         1.501129        -0.714612         2.125944
 H         4.029703         1.116787         1.683147
 H         3.967218        -0.556869         1.671821
 H         4.647986         1.765753        -1.212403
 H         4.272430         0.269651        -2.333718
 H         2.039599         2.226170         0.187930
