19
Iteration:  3151
 C        -0.153150        -0.123927        -0.035596
 C         1.342253         0.088166         0.102851
 C         1.965436        -0.278556         1.467448
 C         3.492639        -0.115110         1.175432
 C         3.279074         0.380350        -0.241802
 C         3.888237         1.232652        -1.340308
 O         2.476242         1.805926        -1.650718
 C         2.107179         1.375815        -0.261363
 O         2.364752        -0.645598        -0.741096
 H        -0.320814        -1.104061        -0.457025
 H        -0.485430        -0.033770         1.020653
 H        -0.520842         0.711776        -0.661063
 H         1.647048         0.247717         2.304439
 H         1.914441        -1.386909         1.781760
 H         3.980615         0.622064         1.826400
 H         3.973870        -1.045810         1.300424
 H         4.704540         1.973098        -0.983705
 H         4.176350         0.611693        -2.268411
 H         1.961188         2.221364         0.487191
