19
Iteration:  2689
 C        -0.095048        -0.269288        -0.173756
 C         1.376135         0.110225         0.105401
 C         2.085925        -0.560742         1.416382
 C         3.629091        -0.361448         1.045804
 C         3.243035         0.445310        -0.198897
 C         3.753822         1.379397        -1.377075
 O         2.445410         1.998802        -1.382533
 C         2.106045         1.423131         0.032021
 O         2.253966        -0.447977        -0.898701
 H        -0.349746         0.501807        -0.983520
 H        -0.211622        -1.331923        -0.481749
 H        -0.814785        -0.022807         0.642476
 H         1.798237         0.144393         2.227112
 H         1.907902        -1.562464         1.681912
 H         4.143095         0.066900         1.873527
 H         4.000925        -1.416551         0.792728
 H         4.817724         1.943525        -1.435994
 H         3.761095         0.725181        -2.259519
 H         2.112925         2.251300         0.738369
