19
Iteration:  1837charge 0 multiplicity 1
 C        -0.079494        -0.239136        -0.263168
 C         1.446691         0.054101         0.118797
 C         2.015058        -0.533691         1.455168
 C         3.634780        -0.452793         1.046946
 C         3.295725         0.429684        -0.242851
 C         3.696443         1.338644        -1.405129
 O         2.348882         2.052924        -1.311053
 C         2.161353         1.467560         0.091521
 O         2.305314        -0.416666        -0.932854
 H        -0.271815        -1.292648        -0.410842
 H        -0.822083        -0.099462         0.547477
 H        -0.353679         0.317581        -1.150324
 H         1.933085         0.058306         2.421038
 H         1.640691        -1.592930         1.703187
 H         4.420370        -0.013546         1.695657
 H         4.108086        -1.441208         0.677913
 H         4.457878         2.130582        -1.198503
 H         3.810330         0.918881        -2.446186
 H         2.107452         2.175714         0.942502
