19
Iteration:  2919charge 0 multiplicity 1
 C        -0.094990        -0.252809        -0.224800
 C         1.360540         0.065664         0.137850
 C         2.065495        -0.398769         1.467007
 C         3.555074        -0.287139         1.081524
 C         3.237854         0.468618        -0.206302
 C         3.768043         1.208586        -1.427515
 O         2.481959         1.943323        -1.402300
 C         2.133631         1.465494        -0.082504
 O         2.297700        -0.521106        -0.778750
 H        -0.090714        -0.923443        -1.115094
 H        -0.772629        -0.698344         0.546327
 H        -0.757348         0.557615        -0.616408
 H         1.884196         0.453891         2.102043
 H         1.803494        -1.283643         1.956732
 H         4.133040         0.306576         1.745302
 H         4.054557        -1.242685         0.902344
 H         4.543850         1.878197        -1.301172
 H         3.848725         0.703766        -2.373545
 H         2.118357         2.360810         0.605240
