19
Iteration:  2087charge 0 multiplicity 1
 C        -0.152785        -0.240229        -0.161142
 C         1.339824         0.007664         0.073721
 C         2.084121        -0.372787         1.399736
 C         3.584606        -0.353160         0.971804
 C         3.285253         0.373093        -0.351580
 C         3.726801         1.381774        -1.371078
 O         2.438063         2.162565        -1.210951
 C         2.194235         1.374274        -0.008349
 O         2.307169        -0.662751        -0.867860
 H        -0.042856        -1.013557        -0.948681
 H        -0.656448        -0.433787         0.826169
 H        -0.741863         0.530349        -0.779484
 H         2.005452         0.304444         2.181807
 H         1.651360        -1.264454         1.827076
 H         4.102691         0.105247         1.745828
 H         3.967671        -1.328174         0.849061
 H         4.545299         2.045144        -1.070580
 H         3.990583         1.030662        -2.370421
 H         2.056274         2.085044         0.857760
