19
Iteration:  1107
 C        -0.148468        -0.159502        -0.233013
 C         1.384479        -0.064718         0.055159
 C         2.062115        -0.495135         1.393352
 C         3.559017        -0.362719         0.949151
 C         3.244014         0.357885        -0.377064
 C         3.708355         1.429603        -1.357800
 O         2.392882         2.184210        -1.147670
 C         2.243770         1.337185         0.037296
 O         2.326098        -0.599240        -0.844779
 H        -0.257181        -1.170083        -0.733540
 H        -0.764145        -0.125028         0.712065
 H        -0.473800         0.579395        -1.001059
 H         1.955866         0.198191         2.243145
 H         1.863798        -1.464475         1.728439
 H         4.261045         0.141624         1.668964
 H         4.157281        -1.297548         0.659241
 H         4.362129         2.250645        -1.071955
 H         4.008853         1.177631        -2.397674
 H         2.285556         1.944460         0.965212
