19
Iteration:  4359
 C        -0.138933        -0.161169        -0.224134
 C         1.319420         0.135309         0.060625
 C         1.914655         0.243719         1.659832
 C         3.459980         0.338242         1.418187
 C         3.311083         0.344161        -0.145202
 C         3.807319         0.831966        -1.565042
 O         2.630991         1.516127        -1.786293
 C         2.120754         1.271676        -0.426374
 O         2.339451        -0.797458        -0.474486
 H        -0.452439        -0.863911         0.512318
 H        -0.620259         0.888612        -0.095039
 H        -0.305764        -0.507003        -1.229552
 H         1.655134         1.157983         2.184832
 H         1.575415        -0.593798         2.135411
 H         3.952515         1.348107         1.580716
 H         4.062163        -0.522195         1.867594
 H         4.725997         1.511724        -1.742473
 H         3.943675        -0.097676        -2.149540
 H         1.957759         2.209090         0.264226
