19
Iteration:   477charge 0 multiplicity 1
 C        -0.063559        -0.147344        -0.145353
 C         1.347791        -0.008913         0.136582
 C         2.017871        -0.577086         1.397785
 C         3.563832        -0.361845         0.925412
 C         3.281028         0.382090        -0.323786
 C         3.729348         1.487728        -1.422651
 O         2.404070         2.133214        -1.221849
 C         2.156036         1.303267         0.022221
 O         2.372187        -0.550318        -0.861748
 H        -0.298680        -1.053872        -0.811969
 H        -0.789384        -0.283008         0.696859
 H        -0.424147         0.638134        -0.835742
 H         1.833043        -0.059529         2.368999
 H         1.566065        -1.519420         1.490491
 H         4.117451         0.244270         1.631532
 H         4.075616        -1.289881         0.779501
 H         4.514629         2.057814        -0.947711
 H         4.024592         1.134877        -2.422062
 H         2.120496         1.977718         0.802552
