19
Iteration:  2403
 C        -0.131920        -0.211666        -0.179948
 C         1.339081         0.020596         0.098567
 C         2.072127        -0.463671         1.475854
 C         3.592546        -0.262138         1.061473
 C         3.269698         0.349678        -0.380475
 C         3.791334         1.336134        -1.363839
 O         2.465664         2.111188        -1.235528
 C         2.133942         1.359914        -0.019253
 O         2.243865        -0.553157        -0.958469
 H        -0.505178        -0.040609        -1.192080
 H        -0.094297        -1.325879        -0.196027
 H        -0.887830         0.217017         0.535879
 H         1.857518         0.301502         2.382770
 H         2.013202        -1.574078         1.751281
 H         4.125290         0.440765         1.833559
 H         4.112693        -1.307615         0.907530
 H         4.576526         2.063728        -1.240967
 H         3.944652         0.867353        -2.361448
 H         2.245684         1.992506         0.866913
