19
Iteration:  2922
 C        -0.073625        -0.254903        -0.244866
 C         1.333030         0.059124         0.126009
 C         2.059824        -0.373881         1.481164
 C         3.573919        -0.280167         1.067503
 C         3.231110         0.431219        -0.227631
 C         3.753265         1.209390        -1.441092
 O         2.468648         1.961189        -1.395180
 C         2.134098         1.475586        -0.077490
 O         2.302601        -0.524557        -0.768316
 H         0.013057        -0.891757        -1.127618
 H        -0.770007        -0.693460         0.509878
 H        -0.688999         0.634075        -0.471352
 H         1.978756         0.414255         2.234741
 H         1.744329        -1.354464         1.976242
 H         4.148770         0.256486         1.870164
 H         4.020134        -1.231690         0.952808
 H         4.597935         1.899684        -1.263168
 H         3.973600         0.578505        -2.356022
 H         2.048594         2.311369         0.582249
