19
Iteration:   111
 C        -0.081722        -0.159013        -0.033240
 C         1.417358        -0.001507        -0.033287
 C         2.096226        -0.704669         1.204724
 C         3.612514        -0.505099         0.899114
 C         3.303377         0.465223        -0.238266
 C         3.674769         1.613628        -1.183818
 O         2.388151         2.151692        -1.188628
 C         2.104930         1.339613         0.055946
 O         2.301026        -0.521975        -1.044398
 H        -0.455231        -1.067017        -0.404652
 H        -0.348898        -0.151536         1.058376
 H        -0.627357         0.720297        -0.472425
 H         1.823097        -0.301771         2.218419
 H         1.808279        -1.692164         1.242923
 H         4.255911        -0.163893         1.760790
 H         4.040587        -1.359924         0.491746
 H         4.323344         2.246190        -0.546229
 H         3.997003         1.309332        -2.125657
 H         2.171935         1.918555         0.936331
