19
Iteration:  1540charge 0 multiplicity 1
 C        -0.116528        -0.258239        -0.188435
 C         1.431557        -0.033753         0.095356
 C         2.047659        -0.452169         1.439214
 C         3.551348        -0.337707         1.023440
 C         3.260515         0.385237        -0.327374
 C         3.704866         1.385105        -1.509685
 O         2.451507         2.253113        -1.083338
 C         2.197441         1.330470        -0.041263
 O         2.294735        -0.626515        -0.925330
 H        -0.289949        -1.338128        -0.529819
 H        -0.612655         0.018938         0.788060
 H        -0.318636         0.492902        -0.985746
 H         1.546219         0.231369         2.066881
 H         1.797306        -1.467347         1.648923
 H         4.120263         0.264473         1.880851
 H         3.995347        -1.355562         0.746261
 H         4.544152         2.006130        -1.212103
 H         3.675623         1.085236        -2.541457
 H         2.228082         1.917899         0.880398
