19
Iteration:  4041
 C        -0.099999        -0.224817        -0.274110
 C         1.356689         0.125427         0.131729
 C         1.883510         0.396546         1.630078
 C         3.444434         0.295236         1.402043
 C         3.257316         0.294430        -0.260345
 C         3.904131         0.792216        -1.558498
 O         2.581946         1.521458        -1.797664
 C         2.141767         1.383951        -0.421999
 O         2.298479        -0.864970        -0.331141
 H        -0.049857        -1.342491        -0.519546
 H        -0.850729        -0.077020         0.485407
 H        -0.341061         0.287820        -1.231307
 H         1.644012         1.407955         2.185617
 H         1.609443        -0.368374         2.316141
 H         3.877931         1.218603         1.587151
 H         4.104667        -0.510278         1.715674
 H         4.687481         1.523455        -1.435441
 H         4.088626         0.294152        -2.452256
 H         2.037532         2.380044         0.119265
