19
Iteration:   473charge 0 multiplicity 1
 C        -0.071475        -0.127711        -0.146772
 C         1.370847         0.012700         0.141936
 C         2.059928        -0.556545         1.391510
 C         3.525038        -0.353293         0.958928
 C         3.299951         0.363571        -0.357050
 C         3.707671         1.490241        -1.388455
 O         2.391555         2.179629        -1.204390
 C         2.163879         1.257847        -0.029566
 O         2.367399        -0.608093        -0.861084
 H        -0.027183        -1.048812        -0.893934
 H        -0.749940        -0.288672         0.744533
 H        -0.427589         0.725737        -0.777925
 H         1.766288         0.038215         2.278704
 H         1.590597        -1.596820         1.570116
 H         3.982833         0.297146         1.708481
 H         4.043083        -1.383772         0.616238
 H         4.585832         2.043952        -1.024421
 H         3.934128         1.149067        -2.377562
 H         2.036355         1.985180         0.855041
