19
Iteration:  1192charge 0 multiplicity 1
 C        -0.063933        -0.159470        -0.062304
 C         1.366564         0.006816         0.084581
 C         2.060437        -0.616007         1.305063
 C         3.539612        -0.414737         1.029961
 C         3.271016         0.352669        -0.327524
 C         3.818684         1.468710        -1.227191
 O         2.343916         2.130239        -1.340265
 C         2.134097         1.403798        -0.023192
 O         2.334122        -0.537941        -0.959962
 H        -0.294804        -1.150679         0.270117
 H        -0.505819         0.497823         0.632825
 H        -0.488491         0.052690        -1.022406
 H         1.896688        -0.257993         2.416012
 H         1.678959        -1.600203         1.240004
 H         3.954653         0.173502         1.837161
 H         4.186640        -1.218639         0.758824
 H         4.504008         2.280951        -0.810994
 H         4.110839         1.183041        -2.233063
 H         2.134425         2.167783         0.848274
