19
Iteration:  4036charge 0 multiplicity 1
 C        -0.130709        -0.246954        -0.255538
 C         1.359215         0.171016         0.142026
 C         1.838049         0.365183         1.666004
 C         3.483846         0.311391         1.342414
 C         3.232943         0.318045        -0.199755
 C         3.832139         0.830939        -1.549083
 O         2.618973         1.482317        -1.802193
 C         2.176005         1.365491        -0.424014
 O         2.321857        -0.859045        -0.371903
 H        -0.076460        -1.226621        -0.681103
 H        -0.892439        -0.046765         0.532125
 H        -0.323905         0.299151        -1.168660
 H         1.599471         1.307181         2.020651
 H         1.524314        -0.400355         2.442769
 H         3.903877         1.347646         1.665628
 H         4.131958        -0.523879         1.657856
 H         4.768116         1.502637        -1.460306
 H         4.210150         0.100933        -2.434404
 H         2.152409         2.360128         0.043357
