19
Iteration:  4974
 C        -0.124153        -0.144759        -0.031213
 C         1.389071         0.216812         0.036430
 C         1.835724         0.050718         1.524738
 C         3.443164         0.199901         1.415939
 C         3.305344         0.476729        -0.144624
 C         3.910142         0.857241        -1.488570
 O         2.516948         1.348409        -1.840431
 C         2.151670         1.460920        -0.472527
 O         2.390963        -0.662423        -0.511335
 H        -0.538621        -0.595941         0.924911
 H        -0.729238         0.742589        -0.237648
 H        -0.170822        -0.849048        -0.838336
 H         1.498865         0.711719         2.407455
 H         1.602399        -1.020516         1.902223
 H         3.656740         1.218377         1.746736
 H         4.079556        -0.548348         1.873252
 H         4.712192         1.518973        -1.565890
 H         3.904713        -0.063576        -2.033814
 H         2.080537         2.581123        -0.148268
