19
Iteration:  2605
 C        -0.101186        -0.126766        -0.039508
 C         1.328444         0.048160         0.076826
 C         2.066581        -0.611489         1.309637
 C         3.599528        -0.280542         0.993167
 C         3.309964         0.469487        -0.250499
 C         3.757568         1.361651        -1.259687
 O         2.424165         2.008618        -1.366935
 C         2.081720         1.399909        -0.056487
 O         2.313788        -0.551152        -0.938913
 H        -0.273921        -0.596820        -1.048414
 H        -0.381762        -0.907961         0.757192
 H        -0.546835         0.829076         0.034135
 H         1.710756        -0.299775         2.367462
 H         1.949471        -1.740555         1.466442
 H         3.945407         0.278799         1.941596
 H         4.331454        -1.128838         1.006301
 H         4.379486         2.085418        -0.827199
 H         4.038179         0.885230        -2.241904
 H         2.073068         2.258688         0.641196
