19
Iteration:  3776charge 0 multiplicity 1
 C        -0.014643        -0.284002        -0.177570
 C         1.389343         0.315576         0.188036
 C         1.845939         0.179481         1.601468
 C         3.409636         0.176140         1.338024
 C         3.323140         0.422377        -0.156116
 C         3.801290         0.767895        -1.525109
 O         2.580130         1.497813        -1.827788
 C         2.210029         1.497248        -0.395013
 O         2.269815        -0.704920        -0.473828
 H        -0.814932         0.266898        -0.744238
 H         0.206292        -0.997398        -1.028633
 H        -0.694583        -0.707788         0.532750
 H         1.544150         0.931817         2.314205
 H         1.596217        -0.903627         2.042328
 H         3.915151         0.800935         2.026632
 H         3.761767        -0.779551         1.496633
 H         4.656139         1.482171        -1.488278
 H         4.078029        -0.065244        -2.235107
 H         2.127457         2.480728        -0.081476
