19
Iteration:   981
 C        -0.036190        -0.203415        -0.207301
 C         1.408412        -0.007360         0.048827
 C         2.043309        -0.561363         1.454178
 C         3.591925        -0.433784         0.950312
 C         3.318104         0.468538        -0.319874
 C         3.680439         1.501273        -1.402029
 O         2.424616         2.153051        -1.244735
 C         2.181979         1.373623         0.091466
 O         2.232079        -0.613435        -0.890246
 H        -0.288654        -1.227854        -0.339276
 H        -0.511779         0.253598         0.670003
 H        -0.249713         0.381254        -1.075774
 H         1.778448         0.078497         2.286226
 H         1.755639        -1.685451         1.673750
 H         4.133324         0.133463         1.671411
 H         3.916710        -1.490075         0.921882
 H         4.470171         2.092731        -1.054038
 H         3.813784         1.113399        -2.421984
 H         1.965101         2.174173         0.933576
