19
Iteration:  3476
 C        -0.044254        -0.318869        -0.177004
 C         1.292012         0.145403         0.113473
 C         1.910061         0.072869         1.610753
 C         3.455937         0.104710         1.292294
 C         3.246579         0.359913        -0.261159
 C         3.762354         0.938841        -1.525699
 O         2.613302         1.725980        -1.627957
 C         2.222765         1.376043        -0.287020
 O         2.316661        -0.681927        -0.631218
 H        -0.341288        -0.240359        -1.228339
 H        -0.364423        -1.290943         0.246050
 H        -0.764435         0.428435         0.392936
 H         1.599181         0.881369         2.291005
 H         1.680721        -0.835314         2.052496
 H         3.931201         1.024810         1.755502
 H         3.908662        -0.900988         1.455955
 H         4.669869         1.640399        -1.424852
 H         3.958140         0.322300        -2.475388
 H         2.249276         2.208928         0.383661
