19
Iteration:   251charge 0 multiplicity 1
 C        -0.161531        -0.187517        -0.067000
 C         1.366970         0.012166         0.041390
 C         2.116651        -0.655324         1.375453
 C         3.626913        -0.391860         0.967697
 C         3.281923         0.373489        -0.366435
 C         3.805492         1.574377        -1.161417
 O         2.417901         2.171459        -1.235688
 C         2.093172         1.316548        -0.093674
 O         2.235205        -0.569754        -1.003471
 H        -0.547835         0.610448         0.514713
 H        -0.254348         0.021928        -1.118657
 H        -0.486511        -1.180839         0.238496
 H         1.807534        -0.346467         2.404881
 H         1.843218        -1.667907         1.314331
 H         4.328438         0.256620         1.547167
 H         4.118851        -1.266319         0.874923
 H         4.420317         2.086142        -0.476806
 H         4.126330         1.535791        -2.180591
 H         2.179772         1.928343         0.842514
