19
Iteration:  4514charge 0 multiplicity 1
 C        -0.105472        -0.115153        -0.142226
 C         1.351022         0.171267         0.091938
 C         1.881114         0.206016         1.613123
 C         3.466239         0.241020         1.405765
 C         3.350220         0.424992        -0.132599
 C         3.854736         0.863754        -1.517822
 O         2.561868         1.388838        -1.855068
 C         2.140986         1.387237        -0.440245
 O         2.338983        -0.776757        -0.489814
 H        -0.340192        -1.142022         0.228434
 H        -0.886294         0.573255         0.292095
 H        -0.330908        -0.175166        -1.273993
 H         1.335645         1.043685         2.034545
 H         1.588208        -0.676909         2.203383
 H         3.917553         1.172410         1.968795
 H         4.104521        -0.598036         1.725640
 H         4.600537         1.566152        -1.609275
 H         4.105842        -0.039011        -2.079760
 H         1.781236         2.410438        -0.018510
