19
Iteration:  3730
 C        -0.112434        -0.094493        -0.130918
 C         1.321507         0.089215         0.084883
 C         1.917003         0.155838         1.561397
 C         3.462680         0.262538         1.301071
 C         3.241790         0.381769        -0.181583
 C         3.835893         0.944441        -1.410445
 O         2.638896         1.531059        -1.798501
 C         2.095778         1.291465        -0.380993
 O         2.361341        -0.818129        -0.512659
 H        -0.360501         0.159866        -1.152353
 H        -0.446573        -1.181079        -0.062899
 H        -0.626034         0.635597         0.528480
 H         1.427299         0.970746         2.124711
 H         1.619627        -0.886035         2.084137
 H         3.939921         1.158022         1.699740
 H         4.034519        -0.599135         1.668055
 H         4.609486         1.633933        -1.467482
 H         4.083632         0.156941        -2.221404
 H         2.121915         2.253008         0.146471
