19
Iteration:  3085
 C        -0.103267        -0.159590        -0.308171
 C         1.355120         0.067828         0.127260
 C         2.014018        -0.269859         1.560747
 C         3.602807        -0.155960         1.242708
 C         3.322300         0.351146        -0.235442
 C         3.734529         1.214610        -1.528843
 O         2.447091         1.960127        -1.442195
 C         2.180325         1.363675        -0.180882
 O         2.294155        -0.680696        -0.704834
 H        -0.656096        -0.587356         0.543255
 H        -0.758537         0.728210        -0.617834
 H        -0.233064        -0.936433        -1.098551
 H         1.737208         0.466666         2.242313
 H         1.598329        -1.194063         2.066002
 H         4.208633         0.599187         1.749253
 H         4.030863        -1.101947         1.353374
 H         4.635724         1.898280        -1.551567
 H         3.739750         0.522523        -2.442514
 H         2.117004         2.289623         0.476903
