19
Iteration:   481charge 0 multiplicity 1
 C        -0.081400        -0.173393        -0.162110
 C         1.353075        -0.012299         0.128502
 C         1.997073        -0.579001         1.402588
 C         3.595055        -0.369355         0.920927
 C         3.271020         0.405073        -0.307372
 C         3.738266         1.471500        -1.423757
 O         2.413821         2.091915        -1.235081
 C         2.147513         1.347044         0.043575
 O         2.356095        -0.518967        -0.878937
 H        -0.426452        -1.025828        -0.674060
 H        -0.744904        -0.230407         0.668820
 H        -0.416768         0.608421        -0.828550
 H         1.862916        -0.111762         2.378529
 H         1.608790        -1.640958         1.456844
 H         4.235008         0.217752         1.648988
 H         4.145448        -1.307465         0.882806
 H         4.507827         2.141133        -0.913598
 H         4.028182         1.133826        -2.459356
 H         2.180249         2.081251         0.930218
