19
Iteration:  3552charge 0 multiplicity 1
 C        -0.018687        -0.107503        -0.087016
 C         1.365689         0.220501         0.052918
 C         1.919411        -0.110824         1.548468
 C         3.409663         0.077180         1.379670
 C         3.313102         0.449808        -0.188952
 C         3.842324         0.996757        -1.451847
 O         2.543252         1.417621        -1.788738
 C         2.096626         1.437295        -0.319928
 O         2.324448        -0.602389        -0.597277
 H        -0.787071         0.615761         0.099806
 H        -0.241088        -0.413144        -1.119013
 H        -0.407602        -0.967295         0.567120
 H         1.408759         0.670005         2.266319
 H         1.657628        -1.090485         1.791928
 H         3.943401         0.946006         1.956844
 H         4.125979        -0.798113         1.395459
 H         4.538930         1.866412        -1.375673
 H         4.096728         0.275308        -2.288684
 H         2.194394         2.378563         0.170296
