19
Iteration:   739
 C        -0.024731        -0.219061        -0.127801
 C         1.439363         0.066323         0.086660
 C         1.995606        -0.609376         1.365584
 C         3.558267        -0.428743         0.946226
 C         3.309728         0.450252        -0.215002
 C         3.766896         1.407753        -1.340369
 O         2.353992         2.044590        -1.290233
 C         2.135744         1.427537        -0.009000
 O         2.285585        -0.430150        -0.892222
 H        -0.103289        -1.291081        -0.382969
 H        -0.416333        -0.076935         0.880668
 H        -0.463103         0.417928        -0.919653
 H         1.747793        -0.162914         2.354340
 H         1.754006        -1.651989         1.363006
 H         4.207403         0.041318         1.719577
 H         3.908981        -1.382887         0.623739
 H         4.612350         2.228174        -1.202397
 H         3.908850         0.895601        -2.361247
 H         1.982768         2.129153         0.863270
