19
Iteration:  4259
 C        -0.162611        -0.046247        -0.054220
 C         1.377709         0.065472         0.091709
 C         1.802608         0.228716         1.613506
 C         3.437272         0.293592         1.418853
 C         3.328997         0.275543        -0.152813
 C         3.887066         0.932915        -1.499357
 O         2.615987         1.466837        -1.965381
 C         2.098959         1.334226        -0.538053
 O         2.389925        -0.857493        -0.424619
 H        -0.340985        -1.022494        -0.489278
 H        -0.582560         0.178157         0.886516
 H        -0.368128         0.800880        -0.708189
 H         1.196873         0.939219         2.095006
 H         1.618061        -0.661695         2.056993
 H         3.919440         1.180155         1.767651
 H         4.061115        -0.521119         1.893814
 H         4.580692         1.775110        -0.972202
 H         4.433819         0.277319        -2.180783
 H         1.702118         2.363736        -0.182129
