19
Iteration:  4703
 C        -0.128071        -0.014882        -0.129858
 C         1.378736         0.061882         0.107959
 C         1.833495         0.187091         1.620392
 C         3.410478         0.344947         1.335986
 C         3.298598         0.331412        -0.174749
 C         3.880982         0.944135        -1.582314
 O         2.596029         1.458895        -1.804561
 C         2.110953         1.284324        -0.434790
 O         2.373739        -0.874837        -0.450640
 H        -0.665527        -0.600849         0.717879
 H        -0.427688         1.059322        -0.216537
 H        -0.281706        -0.519611        -1.077035
 H         1.223409         0.977707         1.960158
 H         1.717205        -0.608252         2.354792
 H         4.056208         1.153433         1.796635
 H         4.065210        -0.520605         1.563283
 H         4.685824         1.601145        -1.262830
 H         4.170280         0.318465        -2.408272
 H         2.070199         2.198163         0.232111
