19
Iteration:   636
 C        -0.117430        -0.173006        -0.096862
 C         1.419605         0.039991         0.085366
 C         2.029644        -0.683185         1.383991
 C         3.587389        -0.343380         1.016575
 C         3.338575         0.449241        -0.220144
 C         3.737668         1.354441        -1.307642
 O         2.362464         1.993530        -1.300193
 C         2.137926         1.403677         0.000141
 O         2.311184        -0.386204        -1.011273
 H        -0.160467        -1.109288        -0.587313
 H        -0.627943        -0.117380         0.840817
 H        -0.483074         0.610052        -0.715490
 H         1.640051        -0.165899         2.246658
 H         1.909256        -1.800052         1.507105
 H         4.066614         0.226166         1.780403
 H         4.271757        -1.236462         0.775949
 H         4.468217         2.270915        -1.184378
 H         3.950483         0.817513        -2.231912
 H         2.129676         2.322665         0.705827
