19
Iteration:   609charge 0 multiplicity 1
 C        -0.059316        -0.224340        -0.189375
 C         1.385874         0.115981         0.165033
 C         2.092589        -0.603683         1.355929
 C         3.597149        -0.454945         0.959676
 C         3.346056         0.396235        -0.295897
 C         3.681411         1.455910        -1.401879
 O         2.422325         2.036481        -1.261531
 C         2.083715         1.452275         0.023825
 O         2.275928        -0.477348        -0.809689
 H        -0.125386        -1.388311        -0.132575
 H        -0.868601         0.368707         0.438306
 H        -0.250532         0.216828        -1.245356
 H         1.766282        -0.271022         2.408908
 H         1.889881        -1.681878         1.118829
 H         4.089031        -0.007152         1.894598
 H         4.032992        -1.362369         0.630552
 H         4.402322         2.121485        -1.030712
 H         3.972301         1.169758        -2.448579
 H         1.936027         2.348829         0.599063
