19
Iteration:  1887charge 0 multiplicity 1
 C        -0.177248        -0.108222        -0.056652
 C         1.394447         0.003680         0.060715
 C         2.055680        -0.618268         1.415071
 C         3.552445        -0.278345         1.099822
 C         3.244227         0.373645        -0.366305
 C         3.783501         1.463927        -1.274103
 O         2.422442         2.139672        -1.329682
 C         2.217471         1.291112        -0.129581
 O         2.321130        -0.600739        -0.973845
 H        -0.388475        -1.162169        -0.523077
 H        -0.694462        -0.362328         0.910398
 H        -0.744235         0.707853        -0.544799
 H         1.814972        -0.134796         2.337938
 H         1.859171        -1.684301         1.497297
 H         3.887030         0.519662         1.783186
 H         4.260844        -1.050928         1.106310
 H         4.508203         2.082750        -0.745399
 H         4.045502         1.086419        -2.244952
 H         2.255075         1.951397         0.774809
