19
Iteration:  2252
 C        -0.036021        -0.302963        -0.134220
 C         1.331795         0.164299         0.110795
 C         2.008574        -0.576100         1.364733
 C         3.616702        -0.365390         1.005698
 C         3.351502         0.441823        -0.243850
 C         3.703425         1.265205        -1.417996
 O         2.474631         2.094801        -1.248160
 C         2.129424         1.446889         0.019272
 O         2.244345        -0.409396        -0.916358
 H        -0.064515        -1.422964        -0.219835
 H        -1.021534        -0.011663         0.367093
 H        -0.395618        -0.164426        -1.287306
 H         1.821829        -0.167321         2.305346
 H         1.714902        -1.591004         1.456403
 H         4.111991         0.105852         1.848170
 H         4.031444        -1.412636         1.055135
 H         4.657141         1.961545        -1.285928
 H         3.798941         0.783105        -2.426729
 H         2.123829         2.188719         0.863519
