19
Iteration:  1768
 C        -0.155061        -0.148620        -0.101140
 C         1.349887        -0.015231         0.077598
 C         2.149822        -0.583603         1.477125
 C         3.631902        -0.240453         0.976243
 C         3.249343         0.394098        -0.385216
 C         3.836486         1.491614        -1.280152
 O         2.460281         2.099789        -1.221875
 C         2.078243         1.230494        -0.030297
 O         2.212734        -0.596071        -1.055637
 H        -0.461334        -1.106464         0.313851
 H        -0.748171         0.543188         0.462778
 H        -0.182257         0.027719        -1.148775
 H         1.740600        -0.080237         2.432184
 H         1.874262        -1.680379         1.587205
 H         3.952384         0.546225         1.641573
 H         4.335923        -0.948611         1.084719
 H         4.616965         2.033928        -0.760791
 H         4.091651         1.158188        -2.265365
 H         1.868268         2.009785         0.767822
