19
Iteration:  3180charge 0 multiplicity 1
 C        -0.138852        -0.222130        -0.097074
 C         1.343166         0.047638         0.040501
 C         1.989076        -0.088276         1.516869
 C         3.504942        -0.111378         1.169617
 C         3.298618         0.291025        -0.259965
 C         3.839308         1.243959        -1.378467
 O         2.545052         1.820176        -1.571705
 C         2.122578         1.360507        -0.181325
 O         2.288382        -0.659315        -0.791755
 H        -0.441895        -0.795522        -0.965619
 H        -0.411377        -0.754965         0.826899
 H        -0.680818         0.696701        -0.047917
 H         1.667610         0.722207         2.274384
 H         1.812594        -0.958790         2.088813
 H         4.059048         0.696782         1.666452
 H         3.940141        -1.092164         1.442887
 H         4.641917         1.863341        -1.017120
 H         4.130381         0.752706        -2.270674
 H         1.990461         2.131772         0.575809
