19
Iteration:  4536
 C        -0.079660        -0.129629        -0.079504
 C         1.301196         0.203497         0.140007
 C         1.843504         0.137641         1.634257
 C         3.316977         0.232401         1.354132
 C         3.335773         0.430435        -0.176376
 C         3.905429         0.835102        -1.526846
 O         2.518588         1.250370        -1.904947
 C         2.200618         1.394119        -0.469443
 O         2.426694        -0.578929        -0.452921
 H        -0.311123        -1.242879        -0.147578
 H        -0.688509         0.306259         0.805028
 H        -0.422804         0.322899        -1.099468
 H         1.353248         0.858129         2.334823
 H         1.584170        -0.893481         2.010164
 H         3.964111         1.085712         1.879235
 H         3.901136        -0.680782         1.600850
 H         4.424494         1.720546        -1.485942
 H         4.466065         0.110616        -2.130526
 H         2.270524         2.505981        -0.068735
