19
Iteration:  4620
 C        -0.054340        -0.293805        -0.150522
 C         1.295033         0.235424         0.036755
 C         1.864849         0.331776         1.601982
 C         3.440403         0.236444         1.410089
 C         3.351787         0.298090        -0.162893
 C         3.746290         0.745751        -1.547999
 O         2.652737         1.542112        -1.848725
 C         2.152896         1.484509        -0.450619
 O         2.334490        -0.784045        -0.396973
 H        -0.210718        -1.282598        -0.342177
 H        -0.442285        -0.134816         0.877135
 H        -0.671261         0.317677        -0.766982
 H         1.463235         1.245573         2.202457
 H         1.603434        -0.634158         1.921726
 H         3.955290         1.080010         1.696801
 H         3.802097        -0.741778         1.667091
 H         4.754232         1.378614        -1.505837
 H         3.905084        -0.107475        -2.270190
 H         2.037145         2.375947         0.098798
