19
Iteration:  4828charge 0 multiplicity 1
 C        -0.125855        -0.070647        -0.090097
 C         1.293417         0.115975         0.159091
 C         1.831047         0.162046         1.700304
 C         3.427560         0.334146         1.323709
 C         3.313221         0.281405        -0.213039
 C         3.927666         0.900237        -1.484140
 O         2.568465         1.477448        -1.903179
 C         2.204117         1.282606        -0.530516
 O         2.338505        -0.789298        -0.468165
 H        -0.359740        -1.117809        -0.319764
 H        -0.696105         0.362428         0.799211
 H        -0.201430         0.601667        -1.017532
 H         1.487655         0.943036         2.462733
 H         1.621646        -0.905862         2.018776
 H         3.721074         1.345313         1.651319
 H         3.832138        -0.521060         1.938454
 H         4.585771         1.664448        -1.218481
 H         4.397155         0.254788        -2.282146
 H         2.197232         2.366223         0.009259
