19
Iteration:  4496charge 0 multiplicity 1
 C        -0.041116        -0.187787        -0.206588
 C         1.374695         0.129287         0.140578
 C         1.911070         0.281288         1.566386
 C         3.462360         0.327018         1.261302
 C         3.197986         0.331653        -0.185440
 C         3.845469         0.774683        -1.464362
 O         2.590154         1.568857        -1.790115
 C         2.099176         1.317672        -0.449165
 O         2.329326        -0.806437        -0.393445
 H        -0.551512        -0.944119         0.433369
 H        -0.521663         0.725263        -0.132302
 H        -0.264871        -0.394315        -1.251336
 H         1.677960         1.118654         2.200150
 H         1.612795        -0.627318         2.181617
 H         3.961285         1.150039         1.730895
 H         3.952422        -0.564763         1.641340
 H         4.765521         1.465204        -1.215924
 H         3.999574         0.036089        -2.265870
 H         2.011913         2.230264         0.153323
