19
Iteration:  2898charge 0 multiplicity 1
 C        -0.107612        -0.270088        -0.077066
 C         1.337606         0.090720         0.051255
 C         1.972425        -0.380489         1.467192
 C         3.569739        -0.236955         1.122820
 C         3.310406         0.449089        -0.231638
 C         3.823457         1.277643        -1.387644
 O         2.479153         1.910526        -1.435091
 C         2.153956         1.384873        -0.068663
 O         2.287417        -0.492434        -0.916308
 H        -0.277028        -1.281961        -0.560636
 H        -0.707386        -0.096126         0.870114
 H        -0.725603         0.405987        -0.740346
 H         1.736727         0.108996         2.389916
 H         1.772695        -1.432207         1.492821
 H         4.106308         0.278878         1.876593
 H         3.975101        -1.233558         1.077277
 H         4.545971         2.008075        -1.217883
 H         4.134218         0.635585        -2.209367
 H         2.003225         2.246577         0.616315
