19
Iteration:   758charge 0 multiplicity 1
 C        -0.173266        -0.141390        -0.100178
 C         1.383022         0.031315         0.121604
 C         2.131096        -0.641273         1.365168
 C         3.599607        -0.413228         1.058571
 C         3.275263         0.428914        -0.318796
 C         3.702090         1.578978        -1.351949
 O         2.436633         2.118163        -1.323001
 C         2.154177         1.384129        -0.029099
 O         2.278659        -0.633010        -0.938443
 H        -0.280409        -1.204593        -0.056280
 H        -0.787664         0.391460         0.564055
 H        -0.300065         0.153081        -1.128243
 H         1.728343        -0.287281         2.363655
 H         1.783426        -1.641987         1.302135
 H         4.118344         0.100869         1.912085
 H         4.129489        -1.350529         0.910109
 H         4.478046         2.078968        -0.762457
 H         4.166315         1.269103        -2.264344
 H         2.199210         2.107501         0.886455
