19
Iteration:  1931
 C        -0.080014        -0.255253        -0.138673
 C         1.304829         0.119330         0.093076
 C         2.124960        -0.602356         1.393410
 C         3.560818        -0.400457         1.051903
 C         3.278363         0.483989        -0.198218
 C         3.768240         1.298402        -1.366442
 O         2.435994         2.034147        -1.323624
 C         2.078657         1.482091         0.009391
 O         2.318700        -0.432386        -0.974730
 H        -0.344450        -1.367043        -0.212062
 H        -0.821557         0.001222         0.678158
 H        -0.406833         0.230047        -1.071129
 H         1.848954        -0.163326         2.315541
 H         1.751966        -1.616124         1.425902
 H         4.090383         0.046010         1.914148
 H         4.151952        -1.221128         0.784775
 H         4.565088         2.041224        -1.180825
 H         3.879241         0.832265        -2.344111
 H         2.325433         2.194353         0.821444
