19
Iteration:  1567charge 0 multiplicity 1
 C        -0.140025        -0.143181        -0.201472
 C         1.376263         0.023456         0.071716
 C         2.132220        -0.528883         1.402727
 C         3.688469        -0.350036         0.977394
 C         3.265383         0.359274        -0.274062
 C         3.642964         1.371797        -1.308465
 O         2.426434         2.118741        -1.211653
 C         2.097668         1.332543         0.018520
 O         2.314914        -0.556858        -0.955121
 H        -0.336805        -1.194226        -0.139601
 H        -0.688689         0.509481         0.500703
 H        -0.318221         0.158721        -1.236471
 H         1.774623         0.274385         2.144851
 H         1.803769        -1.584164         1.672780
 H         4.035338         0.334938         1.668687
 H         4.311467        -1.215608         0.806733
 H         4.503197         2.041264        -1.010835
 H         3.854284         0.979794        -2.369745
 H         1.990258         2.030123         0.889942
