19
Iteration:  4472
 C        -0.208007        -0.245944        -0.192676
 C         1.312752         0.138112         0.179977
 C         1.882751         0.277179         1.659198
 C         3.443464         0.333580         1.296848
 C         3.299684         0.293569        -0.168312
 C         3.853836         0.849148        -1.617724
 O         2.684620         1.638718        -1.813289
 C         2.203679         1.287110        -0.391682
 O         2.284040        -0.839537        -0.427685
 H        -0.684474        -0.886993         0.591136
 H        -0.829461         0.481900        -0.607397
 H        -0.128482        -0.908934        -1.119372
 H         1.701300         1.123764         2.223800
 H         1.577289        -0.560898         2.353882
 H         4.045536         1.295485         1.517803
 H         3.956758        -0.397173         1.896716
 H         4.684999         1.592014        -1.521111
 H         4.040056         0.058643        -2.361600
 H         2.231862         2.302946         0.186384
