19
Iteration:  2286
 C        -0.156749        -0.162749        -0.052292
 C         1.403525         0.018974         0.051479
 C         2.017340        -0.567815         1.401218
 C         3.567369        -0.280415         1.015500
 C         3.322345         0.392390        -0.297171
 C         3.783477         1.435076        -1.346090
 O         2.447565         2.028675        -1.292293
 C         2.107333         1.360539        -0.040032
 O         2.297912        -0.522046        -0.958507
 H        -0.176967        -1.115245        -0.645682
 H        -0.666393        -0.379871         0.922635
 H        -0.414535         0.734775        -0.731327
 H         1.816527        -0.085652         2.315024
 H         1.818463        -1.604583         1.418722
 H         3.962056         0.228745         1.837072
 H         4.072209        -1.287148         0.919234
 H         4.570976         2.158146        -0.887392
 H         4.063516         0.971227        -2.320555
 H         2.035950         2.030007         0.881906
