19
Iteration:   396charge 0 multiplicity 1
 C        -0.112139        -0.240748        -0.084023
 C         1.332024         0.118041         0.107982
 C         2.000211        -0.681373         1.265535
 C         3.589811        -0.392204         0.980135
 C         3.335892         0.410244        -0.223738
 C         3.758083         1.450139        -1.344639
 O         2.431573         2.034375        -1.377265
 C         2.100021         1.460993        -0.031397
 O         2.334321        -0.428426        -0.809016
 H        -0.023798        -1.129209        -0.826744
 H        -0.253190        -0.672259         0.939839
 H        -0.794698         0.626475        -0.296479
 H         1.854039        -0.292550         2.291033
 H         1.690905        -1.785676         1.121280
 H         3.986320         0.186890         1.853491
 H         3.942265        -1.500284         0.838166
 H         4.509298         2.108428        -0.943498
 H         4.170898         1.088333        -2.265233
 H         2.161072         2.288636         0.721460
