19
Iteration:  2962charge 0 multiplicity 1
 C        -0.105768        -0.159596        -0.262388
 C         1.383312         0.041062         0.151387
 C         1.998444        -0.340727         1.465056
 C         3.552647        -0.155472         1.133098
 C         3.323144         0.361496        -0.317820
 C         3.762116         1.242520        -1.472263
 O         2.414338         1.930676        -1.388499
 C         2.190481         1.350540        -0.030874
 O         2.313584        -0.638993        -0.785820
 H        -0.441292         0.346296        -1.191685
 H        -0.457163        -1.221567        -0.178977
 H        -0.604306         0.560427         0.427009
 H         1.821042         0.439342         2.202345
 H         1.654884        -1.216958         1.862316
 H         3.791490         0.582032         1.827950
 H         4.238534        -1.030555         1.097279
 H         4.475007         2.013667        -1.190229
 H         3.948756         0.772282        -2.414433
 H         2.221691         2.103537         0.845481
