19
Iteration:  3952
 C        -0.119794        -0.119583        -0.166308
 C         1.351330         0.120093         0.095266
 C         1.880903         0.236293         1.612414
 C         3.462940         0.336276         1.291194
 C         3.285702         0.344506        -0.104697
 C         3.869084         0.888279        -1.422071
 O         2.638495         1.396026        -1.860929
 C         2.130449         1.287228        -0.495561
 O         2.307148        -0.757299        -0.461476
 H        -0.308950        -1.198471         0.104815
 H        -0.729337         0.332155         0.589067
 H        -0.544717         0.161969        -1.134396
 H         1.428114         1.200633         2.064203
 H         1.662360        -0.686693         2.258681
 H         3.760767         1.318704         1.587042
 H         4.057314        -0.407957         1.718995
 H         4.601622         1.603647        -1.175885
 H         4.180364         0.063606        -2.004607
 H         1.989817         2.349504        -0.086630
