19
Iteration:  4379charge 0 multiplicity 1
 C        -0.087511        -0.069369        -0.162735
 C         1.346828         0.072985         0.206354
 C         1.888164         0.210830         1.581345
 C         3.424917         0.350896         1.281383
 C         3.250643         0.301200        -0.227021
 C         3.925781         0.857570        -1.415532
 O         2.512664         1.429333        -1.818210
 C         2.173679         1.349672        -0.443189
 O         2.339167        -0.804251        -0.493551
 H        -0.646861        -0.532774         0.632367
 H        -0.379508         0.962677        -0.510688
 H        -0.049388        -0.666024        -1.059636
 H         1.375438         1.080490         2.044792
 H         1.737017        -0.576733         2.271632
 H         3.888811         1.252179         1.649937
 H         4.065939        -0.498496         1.666894
 H         4.446496         1.664025        -1.112183
 H         4.385328         0.332034        -2.216455
 H         2.025761         2.166408         0.262115
