19
Iteration:  4386charge 0 multiplicity 1
 C        -0.078535        -0.056557        -0.152323
 C         1.324174         0.133589         0.203099
 C         1.913682         0.182196         1.546868
 C         3.427594         0.320745         1.293345
 C         3.222551         0.297014        -0.214096
 C         3.906362         0.907388        -1.400390
 O         2.518158         1.397053        -1.857960
 C         2.159849         1.299103        -0.446885
 O         2.358087        -0.767574        -0.457824
 H        -0.760511        -0.463587         0.673460
 H        -0.419950         0.865335        -0.483282
 H        -0.079995        -0.784868        -1.019026
 H         1.577964         1.113821         2.061931
 H         1.652073        -0.814458         2.165922
 H         3.902186         1.247472         1.538902
 H         3.885329        -0.565432         1.625529
 H         4.468882         1.893827        -1.088178
 H         4.560762         0.329780        -2.107029
 H         2.232701         2.176563         0.217014
