19
Iteration:  1962charge 0 multiplicity 1
 C        -0.023259        -0.257185        -0.277007
 C         1.366068         0.105543         0.092755
 C         2.027156        -0.451426         1.460421
 C         3.680246        -0.413932         0.970333
 C         3.293353         0.397428        -0.322979
 C         3.698222         1.386655        -1.363086
 O         2.391151         2.098325        -1.212156
 C         2.140151         1.372382         0.030259
 O         2.223402        -0.576137        -0.876093
 H        -0.366506        -1.247515         0.093529
 H        -0.687504         0.553486         0.074030
 H        -0.132335        -0.052768        -1.327918
 H         1.898997         0.252028         2.252737
 H         1.724241        -1.428039         1.705281
 H         4.197168         0.249800         1.751969
 H         4.120452        -1.424122         0.731220
 H         4.464871         2.097721        -0.889489
 H         3.824604         1.128883        -2.417399
 H         2.479963         1.947642         0.846517
