19
Iteration:  4582
 C        -0.271749        -0.187805        -0.157299
 C         1.310326         0.079031         0.184895
 C         1.908906         0.290691         1.669712
 C         3.458511         0.376055         1.240768
 C         3.254510         0.292268        -0.212070
 C         3.884635         0.804895        -1.456098
 O         2.658892         1.481568        -1.860232
 C         2.171362         1.374668        -0.399343
 O         2.383000        -0.782643        -0.475980
 H        -0.432459        -1.216439        -0.686480
 H        -0.832217        -0.165212         0.770726
 H        -0.556564         0.591643        -0.934356
 H         1.642960         1.168113         2.166581
 H         1.608661        -0.608173         2.340988
 H         4.066799         1.345527         1.490911
 H         3.967657        -0.476473         1.762328
 H         4.733854         1.335512        -1.267925
 H         4.026568         0.082971        -2.233495
 H         2.061565         2.478245         0.012272
