19
Iteration:  1836charge 0 multiplicity 1
 C        -0.072966        -0.242045        -0.261628
 C         1.447969         0.047259         0.119260
 C         2.014107        -0.532202         1.455074
 C         3.638209        -0.465275         1.054439
 C         3.293531         0.436624        -0.248980
 C         3.691666         1.344147        -1.412874
 O         2.352826         2.052274        -1.310741
 C         2.166328         1.472139         0.089798
 O         2.302949        -0.411910        -0.928838
 H        -0.301019        -1.297653        -0.421184
 H        -0.828450        -0.083348         0.543641
 H        -0.353972         0.280950        -1.156995
 H         1.917899         0.055838         2.434812
 H         1.625852        -1.602305         1.689145
 H         4.413325        -0.035880         1.701664
 H         4.090168        -1.418052         0.704765
 H         4.460011         2.108186        -1.208659
 H         3.800620         0.930848        -2.446070
 H         2.082043         2.201867         0.945922
