19
Iteration:   817charge 0 multiplicity 1
 C        -0.141070        -0.236029        -0.157330
 C         1.438829         0.024275         0.109159
 C         1.995337        -0.615390         1.387981
 C         3.597833        -0.399387         0.992886
 C         3.304454         0.431964        -0.301338
 C         3.685536         1.433837        -1.467848
 O         2.420347         2.138355        -1.201194
 C         2.196893         1.365314         0.015132
 O         2.347875        -0.464236        -0.879778
 H        -0.606473        -0.963251         0.526986
 H        -0.764506         0.678533         0.047306
 H        -0.365549        -0.574603        -1.184029
 H         1.863833        -0.196134         2.351758
 H         1.693581        -1.697169         1.201989
 H         3.944861         0.147246         1.863012
 H         4.146246        -1.325695         0.730359
 H         4.491281         2.198768        -1.083378
 H         3.823746         0.939799        -2.504994
 H         2.098458         2.065211         0.899612
