19
Iteration:  2307charge 0 multiplicity 1
 C        -0.165180        -0.080049        -0.138094
 C         1.347262         0.012845         0.055837
 C         2.113936        -0.551344         1.375213
 C         3.661067        -0.294146         0.992457
 C         3.245793         0.320566        -0.305372
 C         3.766106         1.499456        -1.232257
 O         2.413525         2.050833        -1.338524
 C         2.056634         1.358125        -0.073312
 O         2.326622        -0.659236        -0.908525
 H        -0.681761        -0.806660        -0.761053
 H        -0.486796        -0.475565         0.833243
 H        -0.421559         1.008888        -0.350038
 H         1.882515         0.036623         2.205403
 H         1.929548        -1.575889         1.537838
 H         4.178831         0.364484         1.656878
 H         4.117258        -1.300379         1.184339
 H         4.413174         2.149488        -0.529518
 H         4.197521         1.230166        -2.213703
 H         2.264342         2.017559         0.779517
