19
Iteration:  4136
 C        -0.213513        -0.079923        -0.093965
 C         1.340592         0.127266         0.164285
 C         1.843152         0.160583         1.619454
 C         3.477708         0.347961         1.316082
 C         3.281421         0.380148        -0.196436
 C         3.920477         0.924200        -1.446394
 O         2.624454         1.400856        -1.853723
 C         2.134324         1.218953        -0.503230
 O         2.359065        -0.756413        -0.490889
 H        -0.701722        -0.487171         0.814363
 H        -0.606003         0.882881        -0.291329
 H        -0.293735        -0.715249        -0.961752
 H         1.415989         0.825007         2.291039
 H         1.669433        -0.890082         2.031081
 H         3.795807         1.361583         1.648942
 H         3.961773        -0.482038         1.735308
 H         4.674469         1.760521        -1.158015
 H         4.381595         0.317276        -2.296374
 H         2.109549         2.239332        -0.130046
