19
Iteration:   305
 C        -0.038140        -0.249586        -0.241007
 C         1.382039         0.077751         0.150712
 C         2.087962        -0.669759         1.349145
 C         3.596299        -0.474727         1.063320
 C         3.337562         0.485242        -0.269157
 C         3.632078         1.346727        -1.439018
 O         2.440281         2.113864        -1.193255
 C         2.137139         1.410030         0.139089
 O         2.267499        -0.390781        -0.998109
 H        -0.564148        -0.879287         0.422819
 H        -0.678260         0.574618        -0.447135
 H         0.014198        -0.735296        -1.200857
 H         1.919247        -0.078330         2.291402
 H         1.698001        -1.620063         1.541228
 H         3.993769         0.262076         1.812392
 H         4.083053        -1.354199         0.939752
 H         4.446993         2.013097        -1.265824
 H         3.748134         0.995490        -2.487862
 H         1.943179         2.257625         0.916339
