19
Iteration:   785
 C        -0.110237        -0.113687        -0.132633
 C         1.385175        -0.030223         0.023312
 C         2.114772        -0.546871         1.391495
 C         3.631705        -0.187928         0.935025
 C         3.260099         0.414044        -0.347165
 C         3.709927         1.405938        -1.254869
 O         2.415005         1.998237        -1.128956
 C         2.123710         1.261552         0.036611
 O         2.252694        -0.537158        -1.070457
 H        -0.546351        -0.940654         0.483377
 H        -0.407967         0.887400         0.321809
 H        -0.340883        -0.166688        -1.229438
 H         1.765849        -0.084231         2.283745
 H         1.875527        -1.665777         1.412607
 H         3.997504         0.563104         1.625156
 H         4.285670        -1.093277         0.835683
 H         4.539480         1.922631        -0.615990
 H         4.232134         1.025033        -2.185874
 H         2.075207         1.844569         0.926139
