19
Iteration:   619charge 0 multiplicity 1
 C        -0.011104        -0.189534        -0.167398
 C         1.389360         0.122657         0.137929
 C         2.073459        -0.612055         1.280812
 C         3.572960        -0.434556         0.986555
 C         3.234077         0.522873        -0.275957
 C         3.729540         1.394358        -1.347086
 O         2.359035         2.011788        -1.345325
 C         2.141114         1.444853         0.082390
 O         2.313431        -0.487729        -0.826319
 H        -0.097097        -1.330659        -0.289611
 H        -0.549656         0.076681         0.807295
 H        -0.365118         0.276105        -1.140906
 H         1.796497        -0.513373         2.378523
 H         1.670629        -1.585967         1.082445
 H         4.214036        -0.057033         1.840039
 H         4.033860        -1.345156         0.698990
 H         4.465350         2.045856        -1.004540
 H         3.937769         0.972939        -2.350712
 H         2.124366         2.207597         0.853069
