19
Iteration:  2750charge 0 multiplicity 1
 C        -0.147724        -0.185095        -0.073747
 C         1.280140         0.019195         0.029915
 C         2.084375        -0.538935         1.455386
 C         3.641767        -0.194218         1.068817
 C         3.279897         0.371711        -0.350768
 C         3.809469         1.402038        -1.310006
 O         2.485792         2.032341        -1.338675
 C         2.099622         1.357457        -0.106195
 O         2.283617        -0.598974        -0.932592
 H        -0.584860         0.788560        -0.079468
 H        -0.551829        -0.457533        -1.005879
 H        -0.640617        -0.663871         0.814904
 H         1.654937         0.038083         2.294768
 H         1.784796        -1.635222         1.611724
 H         4.067794         0.505998         1.833442
 H         4.271167        -1.040830         1.026055
 H         4.589151         1.891409        -0.778952
 H         4.041340         1.086838        -2.309551
 H         2.035420         1.869082         0.856394
