19
Iteration:  1143charge 0 multiplicity 1
 C        -0.052922        -0.206062        -0.197268
 C         1.378418         0.033473         0.047801
 C         2.144274        -0.637530         1.403752
 C         3.575943        -0.340199         1.026278
 C         3.266400         0.369919        -0.268479
 C         3.684191         1.309786        -1.360378
 O         2.425441         2.106721        -1.252204
 C         2.144193         1.407948         0.072346
 O         2.242363        -0.401672        -0.942113
 H        -0.232914        -1.233318        -0.609278
 H        -0.674933        -0.137320         0.765626
 H        -0.454726         0.552702        -0.909773
 H         1.630870        -0.118872         2.187041
 H         1.901309        -1.758858         1.485170
 H         4.071969         0.464297         1.589545
 H         4.292112        -1.204902         0.804126
 H         4.465429         2.014677        -0.883506
 H         3.966207         0.925106        -2.401648
 H         2.207148         2.079585         0.887776
