19
Iteration:  3289charge 0 multiplicity 1
 C        -0.125342        -0.065027        -0.087663
 C         1.342272         0.063278         0.137543
 C         1.990472        -0.181811         1.541126
 C         3.520457         0.034517         1.255594
 C         3.267554         0.310829        -0.256053
 C         3.814754         1.194675        -1.346408
 O         2.538205         1.751107        -1.707011
 C         2.089870         1.328026        -0.325419
 O         2.360685        -0.761988        -0.705979
 H        -0.724997         0.583637         0.632741
 H        -0.538213         0.294290        -1.086255
 H        -0.507794        -1.091255         0.049694
 H         1.718623         0.711220         2.207981
 H         1.725001        -1.169547         1.808266
 H         4.076937         0.862384         1.791339
 H         4.067351        -0.944231         1.472226
 H         4.474895         1.984769        -0.954723
 H         4.195160         0.650013        -2.140013
 H         1.882727         2.162884         0.285193
