19
Iteration:  4596
 C        -0.114640        -0.212526        -0.114274
 C         1.253626         0.151394         0.219898
 C         1.830773         0.322562         1.595423
 C         3.457132         0.352921         1.310380
 C         3.243226         0.302982        -0.229283
 C         3.891405         0.748068        -1.582838
 O         2.655247         1.589591        -1.768711
 C         2.191436         1.334211        -0.446816
 O         2.344849        -0.863100        -0.463510
 H        -0.109676        -1.168008        -0.580450
 H        -0.822317        -0.273584         0.711451
 H        -0.482239         0.480235        -0.819819
 H         1.418885         1.334409         1.816929
 H         1.607206        -0.425286         2.332528
 H         3.762502         1.308884         1.629292
 H         4.029345        -0.504085         1.674472
 H         4.666797         1.522810        -1.522206
 H         4.160886        -0.027851        -2.287599
 H         2.284445         2.210383         0.223291
