19
Iteration:  2940charge 0 multiplicity 1
 C        -0.022968        -0.198149        -0.307854
 C         1.427829         0.129921         0.147314
 C         2.028949        -0.267470         1.603077
 C         3.595491        -0.260727         1.113076
 C         3.305209         0.346895        -0.277903
 C         3.708671         1.222059        -1.419569
 O         2.429887         2.010126        -1.407608
 C         2.102997         1.361038        -0.083407
 O         2.267543        -0.633994        -0.789336
 H        -0.094685        -0.446276        -1.382478
 H        -0.472228        -1.027389         0.279598
 H        -0.761927         0.657135        -0.289014
 H         1.610193         0.211614         2.477806
 H         1.776499        -1.267219         1.604050
 H         4.315455         0.363016         1.546653
 H         3.982334        -1.299075         0.985981
 H         4.515290         1.871554        -1.201421
 H         3.726327         0.872129        -2.414498
 H         2.037258         2.147092         0.746169
