19
Iteration:  4204
 C        -0.043830        -0.269514        -0.269580
 C         1.260951         0.258728         0.137580
 C         1.948296         0.175072         1.712694
 C         3.432072         0.222427         1.437206
 C         3.286732         0.413721        -0.127872
 C         3.807640         0.704999        -1.538217
 O         2.584318         1.459873        -1.888758
 C         2.182264         1.442926        -0.510429
 O         2.295507        -0.612761        -0.417478
 H        -0.048426        -1.357188        -0.129496
 H        -0.720030         0.118112         0.426325
 H        -0.282852         0.004389        -1.311835
 H         1.663746         0.984799         2.304209
 H         1.614134        -0.663144         2.180881
 H         3.752489         1.086855         1.915870
 H         4.045864        -0.681433         1.496362
 H         4.750892         1.429549        -1.544019
 H         4.089805        -0.205459        -2.066613
 H         2.115496         2.437495         0.021819
