19
Iteration:   668charge 0 multiplicity 1
 C        -0.145956        -0.160796        -0.092845
 C         1.360938         0.002967         0.018697
 C         2.048921        -0.535745         1.366188
 C         3.601303        -0.232677         0.991003
 C         3.286050         0.355852        -0.368135
 C         3.750081         1.417347        -1.291640
 O         2.437634         2.164483        -1.186996
 C         2.173810         1.320820        -0.031242
 O         2.285589        -0.666824        -0.945525
 H        -0.336563        -0.928914        -0.842827
 H        -0.548166        -0.509748         0.867116
 H        -0.611479         0.744718        -0.485963
 H         1.610243        -0.076699         2.244930
 H         1.868087        -1.675873         1.482993
 H         4.084250         0.495416         1.621471
 H         4.261637        -1.172095         0.962447
 H         4.576065         2.119308        -0.890596
 H         3.941142         1.099385        -2.306172
 H         2.226318         2.033693         0.854000
