19
Iteration:    22charge 0 multiplicity 1
 C        -0.067755        -0.190108        -0.201550
 C         1.412631        -0.066035        -0.044692
 C         2.127279        -0.624491         1.326229
 C         3.627763        -0.442803         0.916045
 C         3.298526         0.382208        -0.355394
 C         3.666930         1.468083        -1.333866
 O         2.413882         2.293273        -0.842946
 C         2.144451         1.283642         0.152426
 O         2.237556        -0.488562        -1.166444
 H        -0.520005        -0.414438         0.779378
 H        -0.608473         0.655728        -0.619815
 H        -0.353835        -1.044849        -0.803785
 H         1.800695         0.061576         2.065290
 H         1.758156        -1.572752         1.746241
 H         4.132837         0.223734         1.592268
 H         4.211597        -1.367034         0.822607
 H         4.543729         2.083198        -1.176795
 H         3.496305         1.167217        -2.376840
 H         2.145158         1.720142         1.107117
