19
Iteration:   394
 C        -0.127707        -0.242699        -0.075207
 C         1.324361         0.125468         0.123769
 C         2.006871        -0.670616         1.260012
 C         3.577263        -0.404724         0.977636
 C         3.327758         0.416738        -0.221806
 C         3.770328         1.455777        -1.337720
 O         2.426709         2.021898        -1.363676
 C         2.102107         1.460821        -0.038870
 O         2.353310        -0.445004        -0.840294
 H        -0.023709        -1.092729        -0.760685
 H        -0.284076        -0.652280         0.907969
 H        -0.774311         0.619481        -0.300615
 H         1.831671        -0.268448         2.281518
 H         1.695790        -1.735107         1.120567
 H         4.051216         0.197794         1.882677
 H         3.975402        -1.474116         0.883375
 H         4.504982         2.191150        -0.937066
 H         4.164506         1.061807        -2.305477
 H         2.150577         2.345704         0.727851
