19
Iteration:     5
 C        -0.085807        -0.197405        -0.166369
 C         1.405396         0.014762         0.013106
 C         2.103763        -0.748239         1.237588
 C         3.620332        -0.478886         0.870309
 C         3.251610         0.412795        -0.314028
 C         3.692489         1.529630        -1.291063
 O         2.379976         2.191930        -1.006686
 C         2.165998         1.309843         0.150704
 O         2.241283        -0.398031        -1.035587
 H        -0.514167         0.116483         0.776981
 H        -0.374684         0.489146        -0.991412
 H        -0.187946        -1.284513        -0.390479
 H         1.959658        -0.199904         2.250235
 H         1.906920        -1.803270         1.381901
 H         4.170245         0.026801         1.734401
 H         4.189629        -1.339681         0.537987
 H         4.603104         2.129507        -0.961882
 H         3.898861         1.263658        -2.316391
 H         2.101400         1.904582         1.147167
