19
Iteration:  4724charge 0 multiplicity 1
 C        -0.134738        -0.139811        -0.176788
 C         1.351492         0.100433         0.122344
 C         1.933754         0.245015         1.611167
 C         3.420852         0.272447         1.366151
 C         3.296229         0.343101        -0.181890
 C         3.844046         0.760061        -1.504876
 O         2.569683         1.549822        -1.804686
 C         2.137346         1.356102        -0.405053
 O         2.372444        -0.753179        -0.530949
 H        -0.660682        -0.612361         0.758622
 H        -0.548652         0.841156        -0.411226
 H        -0.172649        -0.870041        -0.976770
 H         1.618512         0.990854         2.240078
 H         1.400683        -0.612103         2.049563
 H         3.921855         1.243061         1.651029
 H         4.119853        -0.374058         1.895081
 H         4.760269         1.439948        -1.469645
 H         3.988514        -0.197112        -2.023378
 H         1.864090         2.236972         0.169859
