19
Iteration:  1273charge 0 multiplicity 1
 C        -0.076967        -0.245107        -0.190258
 C         1.372219         0.047080         0.057662
 C         2.025533        -0.655456         1.354945
 C         3.591579        -0.436693         1.055380
 C         3.328879         0.459895        -0.246016
 C         3.723884         1.349298        -1.462081
 O         2.361689         2.082507        -1.207721
 C         2.200333         1.507289         0.070580
 O         2.288709        -0.387749        -0.910460
 H        -0.022518        -1.314478        -0.454421
 H        -0.753920        -0.020622         0.685012
 H        -0.326329         0.288749        -1.126661
 H         1.968684        -0.295557         2.341290
 H         1.650452        -1.727011         1.315404
 H         3.964556         0.103427         1.973991
 H         4.252755        -1.411723         0.951290
 H         4.566244         1.977703        -1.419321
 H         3.680414         0.847187        -2.473990
 H         2.170973         2.238574         0.913002
