19
Iteration:   173
 C        -0.033608        -0.263216        -0.249961
 C         1.349378         0.098951         0.194438
 C         2.091806        -0.731562         1.321818
 C         3.628667        -0.444771         0.905831
 C         3.272772         0.401968        -0.308996
 C         3.648758         1.371760        -1.368686
 O         2.430208         2.178977        -1.058243
 C         2.148946         1.440865         0.102622
 O         2.262088        -0.370621        -0.994047
 H        -0.152170        -0.124163        -1.338445
 H        -0.177888        -1.323690         0.036797
 H        -0.782547         0.328776         0.287912
 H         2.029788        -0.414257         2.346670
 H         1.740583        -1.782081         1.112281
 H         4.077369         0.203825         1.662507
 H         4.278311        -1.314113         0.736749
 H         4.477720         2.052782        -1.290735
 H         3.732827         0.975011        -2.423862
 H         1.962220         2.095922         1.043915
