19
Iteration:  2234
 C        -0.095212        -0.294201        -0.238374
 C         1.370566         0.024103         0.137769
 C         2.082552        -0.504383         1.440919
 C         3.554956        -0.356351         0.970333
 C         3.192796         0.375672        -0.283230
 C         3.746171         1.388259        -1.432749
 O         2.508625         2.140857        -1.239671
 C         2.183088         1.452822         0.023421
 O         2.236589        -0.500723        -0.859887
 H        -0.386733        -1.308918         0.200832
 H        -0.809943         0.401237         0.267403
 H        -0.040615        -0.350387        -1.379936
 H         1.840041        -0.036265         2.480654
 H         1.772903        -1.578513         1.397664
 H         4.221206         0.057625         1.740511
 H         4.145742        -1.219247         0.613441
 H         4.638573         1.964434        -1.243443
 H         3.771431         0.797675        -2.341694
 H         2.049229         2.115298         0.938170
