19
Iteration:   316
 C        -0.091815        -0.254149        -0.280316
 C         1.380453         0.018168         0.117841
 C         2.033544        -0.632325         1.376217
 C         3.610624        -0.397325         0.960992
 C         3.286381         0.387067        -0.294707
 C         3.714675         1.447985        -1.442357
 O         2.407877         2.123425        -1.159976
 C         2.197817         1.438385         0.078743
 O         2.268890        -0.462941        -0.848834
 H        -0.579587        -1.033919         0.253124
 H        -0.622936         0.681215        -0.210482
 H        -0.024011        -0.545071        -1.318076
 H         1.836576        -0.117016         2.349805
 H         1.727130        -1.644930         1.432377
 H         4.134383         0.134110         1.811528
 H         4.203576        -1.237708         0.839522
 H         4.579727         2.061555        -1.253266
 H         3.646051         1.007987        -2.463767
 H         2.234392         2.144530         1.003914
