19
Iteration:  4485
 C        -0.131346        -0.209478        -0.234001
 C         1.265737         0.139660         0.166129
 C         1.893106         0.299785         1.719015
 C         3.470125         0.332693         1.273632
 C         3.221068         0.253192        -0.302325
 C         3.884402         0.795878        -1.528925
 O         2.620152         1.610833        -1.760412
 C         2.160484         1.385051        -0.438482
 O         2.365229        -0.864948        -0.393555
 H        -0.653690        -0.833401         0.539579
 H        -0.693506         0.644818        -0.233793
 H        -0.049884        -0.769852        -1.184271
 H         1.362989         1.178938         2.071858
 H         1.692626        -0.640714         2.347256
 H         3.873954         1.267281         1.616840
 H         4.067483        -0.530096         1.524522
 H         4.896751         1.431835        -1.338967
 H         4.069815         0.132814        -2.396660
 H         2.056355         2.302185         0.150543
