19
Iteration:  1909
 C        -0.070308        -0.206218        -0.029492
 C         1.341460         0.076497         0.021506
 C         1.968756        -0.591905         1.276561
 C         3.600584        -0.268340         1.020366
 C         3.315683         0.439149        -0.299997
 C         3.778769         1.374389        -1.330927
 O         2.480152         1.981277        -1.275802
 C         2.115834         1.379101         0.021676
 O         2.308321        -0.483236        -0.939338
 H        -0.513071        -1.242866        -0.338886
 H        -0.613529        -0.210844         0.952020
 H        -0.574302         0.580034        -0.616027
 H         1.516587        -0.193175         2.160012
 H         1.981866        -1.667745         1.308279
 H         4.089244         0.437761         1.722279
 H         4.103020        -1.176562         1.091224
 H         4.511876         2.100232        -0.955200
 H         4.021462         0.867424        -2.266725
 H         1.802992         2.212945         0.717202
