19
Iteration:  2553
 C        -0.051016        -0.243447        -0.157735
 C         1.397868         0.055109         0.063298
 C         2.096537        -0.450630         1.398039
 C         3.592979        -0.369531         1.009303
 C         3.240607         0.453659        -0.315902
 C         3.765137         1.316664        -1.356947
 O         2.440192         2.042386        -1.250240
 C         2.066488         1.394328        -0.029383
 O         2.274362        -0.531018        -0.898316
 H        -0.286498        -0.128944        -1.225384
 H        -0.299934        -1.215049         0.361753
 H        -0.610104         0.531777         0.436667
 H         1.709008         0.104858         2.210362
 H         1.606951        -1.451957         1.615913
 H         4.078387         0.325207         1.754343
 H         4.158771        -1.250881         0.909064
 H         4.465781         2.150264        -0.941034
 H         3.991887         0.844730        -2.393410
 H         1.996270         2.140001         0.811447
