19
Iteration:  2139
 C        -0.119228        -0.221914        -0.139312
 C         1.343116         0.071506         0.091254
 C         2.061121        -0.615550         1.337489
 C         3.656046        -0.285388         1.006799
 C         3.261690         0.463429        -0.258475
 C         3.742292         1.311801        -1.321490
 O         2.444899         1.979317        -1.322837
 C         2.132283         1.468114         0.018767
 O         2.254977        -0.438374        -0.888346
 H        -0.325711        -1.310423        -0.310737
 H        -0.609384         0.164117         0.741183
 H        -0.302090         0.290950        -1.051693
 H         1.772867        -0.335848         2.351637
 H         1.815789        -1.705096         1.261851
 H         4.169801         0.282456         1.883549
 H         4.231036        -1.207914         1.010582
 H         4.629273         2.039633        -1.304997
 H         3.763747         0.697299        -2.264266
 H         2.270893         2.238238         0.734842
