19
Iteration:   715charge 0 multiplicity 1
 C        -0.182118        -0.316236        -0.208544
 C         1.350695         0.098383         0.102965
 C         2.105949        -0.511165         1.393690
 C         3.635477        -0.377375         1.006450
 C         3.327192         0.423556        -0.158294
 C         3.705418         1.300484        -1.369228
 O         2.449751         2.024171        -1.233717
 C         2.137457         1.390341         0.082387
 O         2.256721        -0.375301        -1.059237
 H        -0.205289        -1.156841        -0.882601
 H        -0.627863        -0.513039         0.726089
 H        -0.581002         0.550930        -0.697567
 H         2.111111         0.095530         2.350454
 H         1.847887        -1.478883         1.703350
 H         4.198197         0.105390         1.836122
 H         4.126169        -1.276368         0.641133
 H         4.547887         2.164304        -1.223839
 H         3.798923         0.939319        -2.422157
 H         2.062732         2.202576         0.955802
