19
Iteration:  4876charge 0 multiplicity 1
 C        -0.069052        -0.211264        -0.214582
 C         1.359817         0.212941         0.186711
 C         1.900772         0.170869         1.680840
 C         3.440687         0.177998         1.429122
 C         3.293483         0.476107        -0.140517
 C         3.874109         0.682237        -1.545341
 O         2.527047         1.456063        -1.952374
 C         2.150184         1.462960        -0.397236
 O         2.339643        -0.618993        -0.441439
 H        -0.104533        -1.314947        -0.308261
 H        -0.700177         0.068792         0.585363
 H        -0.273017         0.280217        -1.127196
 H         1.260755         0.981689         2.177728
 H         1.565903        -0.904142         2.022209
 H         3.985342         0.973851         1.956486
 H         3.841336        -0.797161         1.519408
 H         4.721425         1.451359        -1.762051
 H         3.951786        -0.185646        -2.202013
 H         2.036659         2.479480        -0.056209
