19
Iteration:    67charge 0 multiplicity 1
 C        -0.025656        -0.277305        -0.181095
 C         1.369046         0.038044         0.102470
 C         2.144226        -0.801474         1.244295
 C         3.637554        -0.475920         0.877645
 C         3.266049         0.413736        -0.271110
 C         3.698490         1.467523        -1.245572
 O         2.430211         2.247264        -1.103249
 C         2.179161         1.484679         0.126446
 O         2.134538        -0.419586        -1.023777
 H        -0.416230        -1.122414         0.312779
 H        -0.694922         0.540450         0.108385
 H        -0.209267        -0.402909        -1.257659
 H         1.878693        -0.623318         2.296587
 H         1.867782        -1.785062         1.094841
 H         4.126127         0.132455         1.676825
 H         4.298233        -1.238989         0.605753
 H         4.548169         2.100424        -0.956385
 H         3.709984         1.019210        -2.199785
 H         2.170052         2.065944         1.011324
