19
Iteration:  3647charge 0 multiplicity 1
 C        -0.057974        -0.291897        -0.142749
 C         1.351305         0.195279         0.092506
 C         1.859570         0.091672         1.661081
 C         3.476602         0.116484         1.327643
 C         3.269984         0.397870        -0.153221
 C         3.868169         0.879437        -1.519020
 O         2.577644         1.636823        -1.768450
 C         2.184412         1.403626        -0.441502
 O         2.285228        -0.663489        -0.504819
 H        -0.416624        -1.315256         0.102235
 H        -0.718219         0.486614         0.233456
 H        -0.287410        -0.243607        -1.211521
 H         1.576005         0.829900         2.405646
 H         1.525460        -0.864673         1.940416
 H         4.036299         0.867841         1.900757
 H         3.896668        -0.876670         1.421315
 H         4.769371         1.553192        -1.623648
 H         3.860990         0.119097        -2.248211
 H         2.078880         2.451571         0.048066
