19
Iteration:  3820charge 0 multiplicity 1
 C        -0.147017        -0.073681        -0.096627
 C         1.329618         0.040305         0.131195
 C         1.884066         0.208350         1.549235
 C         3.420557         0.287334         1.343391
 C         3.277118         0.359282        -0.144099
 C         4.012987         0.904564        -1.444732
 O         2.535196         1.455575        -1.796729
 C         2.136964         1.357234        -0.494390
 O         2.357317        -0.807455        -0.541907
 H        -0.755665         0.640345         0.546624
 H        -0.268955         0.077407        -1.211622
 H        -0.595240        -1.040034         0.135509
 H         1.400980         1.105592         1.970458
 H         1.593108        -0.677856         2.275292
 H         4.027327         1.077517         1.740460
 H         3.843674        -0.606543         1.661398
 H         4.709736         1.707018        -1.248265
 H         4.398797         0.147149        -2.123194
 H         1.947302         2.273024         0.030248
