19
Iteration:  4827charge 0 multiplicity 1
 C        -0.130208        -0.068249        -0.085102
 C         1.295488         0.117376         0.155542
 C         1.826958         0.166483         1.710538
 C         3.420947         0.330255         1.321086
 C         3.314497         0.277719        -0.216536
 C         3.920347         0.899591        -1.478165
 O         2.572605         1.483334        -1.896455
 C         2.206632         1.270393        -0.541251
 O         2.349795        -0.793515        -0.468529
 H        -0.347404        -1.105264        -0.305872
 H        -0.707343         0.398018         0.814459
 H        -0.216279         0.592926        -1.020957
 H         1.482921         0.943134         2.421163
 H         1.621648        -0.855458         2.001798
 H         3.717236         1.327251         1.654283
 H         3.852827        -0.533422         1.941181
 H         4.570787         1.676663        -1.229703
 H         4.379857         0.318235        -2.317060
 H         2.182982         2.349948        -0.027944
