19
Iteration:  4045
 C        -0.056586        -0.223341        -0.294114
 C         1.334393         0.108384         0.129440
 C         1.926696         0.414977         1.612893
 C         3.410064         0.290714         1.405576
 C         3.284101         0.273274        -0.264068
 C         3.933102         0.779195        -1.558163
 O         2.555335         1.552417        -1.802233
 C         2.126798         1.377221        -0.426039
 O         2.286086        -0.850965        -0.311934
 H        -0.073359        -1.306207        -0.349940
 H        -0.877616        -0.054588         0.515852
 H        -0.367323         0.287401        -1.230267
 H         1.666012         1.354318         2.157457
 H         1.586881        -0.440028         2.254330
 H         3.980239         1.270538         1.628687
 H         4.016528        -0.573751         1.831443
 H         4.658764         1.585036        -1.345431
 H         4.020442         0.223102        -2.530650
 H         1.973903         2.261555         0.123706
