19
Iteration:  3496
 C        -0.124899        -0.261042        -0.193348
 C         1.392208         0.150657         0.099932
 C         1.919803         0.094074         1.560173
 C         3.511225         0.123348         1.269512
 C         3.335563         0.243810        -0.244746
 C         3.844216         0.944694        -1.466733
 O         2.545586         1.857244        -1.627398
 C         2.148066         1.395987        -0.317990
 O         2.238253        -0.855950        -0.554507
 H        -0.238183         0.295889        -1.116909
 H        -0.053968        -1.343631        -0.390258
 H        -0.897251        -0.075688         0.606238
 H         1.610172         1.063455         2.182590
 H         1.646629        -0.689085         2.148565
 H         3.936662         1.144405         1.591132
 H         4.101424        -0.799939         1.547499
 H         4.822029         1.526924        -1.491531
 H         3.887000         0.340359        -2.347979
 H         1.878281         2.304339         0.194263
