19
Iteration:  4670
 C        -0.110645        -0.051995        -0.134969
 C         1.327325         0.178244         0.121650
 C         1.933092         0.138802         1.642912
 C         3.490339         0.257889         1.409264
 C         3.258540         0.357030        -0.168988
 C         3.870991         0.893044        -1.419471
 O         2.549996         1.301573        -1.920377
 C         2.142547         1.405146        -0.500188
 O         2.321912        -0.708634        -0.491963
 H        -0.307964        -1.153887         0.217122
 H        -0.853885         0.558028         0.417289
 H        -0.259563        -0.071244        -1.224996
 H         1.567689         0.961855         2.202318
 H         1.480418        -0.803090         2.024959
 H         4.045800         1.181340         1.765356
 H         4.065708        -0.688390         1.587455
 H         4.487492         1.702723        -1.077431
 H         4.358560         0.291633        -2.162810
 H         2.068945         2.471255        -0.068358
