19
Iteration:  3371charge 0 multiplicity 1
 C        -0.115602        -0.226749        -0.212785
 C         1.403802         0.098057         0.142350
 C         1.936177        -0.043411         1.562818
 C         3.489053         0.074644         1.226904
 C         3.278352         0.429220        -0.256406
 C         3.795787         0.949242        -1.497059
 O         2.546420         1.790689        -1.588728
 C         2.151577         1.349613        -0.280027
 O         2.334465        -0.690988        -0.578902
 H        -0.284359        -1.289578        -0.106591
 H        -0.795890         0.372900         0.367889
 H        -0.164420         0.025238        -1.264984
 H         1.649123         0.759484         2.251281
 H         1.353675        -1.025738         1.925446
 H         3.984697         0.823592         1.829947
 H         3.968541        -0.865564         1.412573
 H         4.673858         1.558265        -1.486527
 H         3.705557         0.334298        -2.429558
 H         2.098712         2.237901         0.447863
