19
Iteration:  2857charge 0 multiplicity 1
 C        -0.193765        -0.135263        -0.082892
 C         1.319733         0.005797         0.084581
 C         2.072621        -0.471021         1.409761
 C         3.566074        -0.165835         1.116009
 C         3.244678         0.380442        -0.276660
 C         3.886030         1.356845        -1.355485
 O         2.476199         1.988861        -1.390542
 C         2.111374         1.320535        -0.142956
 O         2.276958        -0.630719        -0.868504
 H        -0.438694        -0.825707         0.628264
 H        -0.636240         0.830720         0.114427
 H        -0.320017        -0.327149        -1.098452
 H         1.522823         0.022841         2.215450
 H         1.976181        -1.590138         1.575298
 H         4.185637         0.629013         1.607969
 H         4.139248        -1.062418         1.095367
 H         4.587214         2.155053        -0.853271
 H         4.280240         1.066215        -2.372604
 H         2.115051         1.970995         0.692795
