19
Iteration:  2823charge 0 multiplicity 1
 C         0.000749        -0.137371        -0.257327
 C         1.389513         0.036484         0.094780
 C         2.038074        -0.424889         1.463802
 C         3.589008        -0.280939         1.101205
 C         3.247916         0.411454        -0.218389
 C         3.735865         1.287964        -1.420237
 O         2.372983         1.971182        -1.342438
 C         2.153594         1.408318        -0.022002
 O         2.279375        -0.545656        -0.856194
 H        -0.614654        -0.506568         0.534291
 H        -0.604152         0.686541        -0.654870
 H        -0.120174        -1.019524        -0.807396
 H         1.632368         0.256406         2.229560
 H         1.796495        -1.486210         1.668784
 H         4.317569         0.294782         1.741392
 H         4.007211        -1.238079         0.805124
 H         4.630669         2.014267        -1.240363
 H         3.902510         0.650462        -2.339289
 H         2.300348         2.034271         0.834456
