19
Iteration:  2728
 C        -0.151646        -0.128899        -0.024672
 C         1.345645        -0.010774         0.107928
 C         2.055889        -0.498630         1.323724
 C         3.551623        -0.276179         1.068968
 C         3.320834         0.380636        -0.353643
 C         3.811693         1.472216        -1.265329
 O         2.462831         1.993676        -1.377595
 C         2.127943         1.389230        -0.082485
 O         2.281693        -0.623592        -0.931864
 H        -0.814925         0.676492        -0.209489
 H        -0.312651        -0.830144        -0.817249
 H        -0.338864        -0.569259         0.990771
 H         1.596134        -0.038565         2.211203
 H         1.865054        -1.635451         1.338433
 H         3.996891         0.523996         1.714882
 H         4.102650        -1.153541         1.243743
 H         4.477556         2.166015        -0.903892
 H         4.100504         1.041361        -2.225614
 H         2.217947         2.068752         0.798916
