19
Iteration:  4610
 C        -0.047043        -0.240004        -0.120677
 C         1.401636         0.165408         0.038998
 C         1.870545         0.347698         1.591529
 C         3.368628         0.314327         1.349410
 C         3.321088         0.263440        -0.189546
 C         3.846623         0.783915        -1.569179
 O         2.619006         1.607900        -1.794704
 C         2.184153         1.311598        -0.449623
 O         2.254554        -0.793718        -0.384681
 H         0.011117        -1.241216        -0.472516
 H        -0.585973        -0.252698         0.843190
 H        -0.677447         0.346645        -0.802355
 H         1.579743         1.229963         2.263600
 H         1.426400        -0.489023         2.103900
 H         3.996467         1.102693         1.687586
 H         3.814540        -0.531024         1.852051
 H         4.894451         1.327027        -1.582098
 H         3.777428        -0.010805        -2.363664
 H         1.991780         2.218681         0.019886
