19
Iteration:  4342
 C        -0.122891        -0.230266        -0.175389
 C         1.350929         0.182722         0.129583
 C         1.846636         0.223462         1.569812
 C         3.452459         0.293550         1.374622
 C         3.297250         0.397579        -0.164743
 C         3.834764         0.656468        -1.584352
 O         2.584954         1.584610        -1.806031
 C         2.183993         1.430083        -0.437502
 O         2.387272        -0.733804        -0.372132
 H        -0.413950        -1.274038         0.161579
 H        -0.872641         0.419612         0.207062
 H        -0.256187        -0.259891        -1.287805
 H         1.398000         1.078039         2.143179
 H         1.654431        -0.846769         2.023689
 H         3.804250         1.157408         1.948435
 H         3.829193        -0.662267         1.618619
 H         4.823842         1.172180        -1.619340
 H         3.826655        -0.179882        -2.306627
 H         2.090014         2.428511        -0.086885
