19
Iteration:   287charge 0 multiplicity 1
 C        -0.006466        -0.248437        -0.137181
 C         1.401725         0.024330        -0.000188
 C         2.036134        -0.633064         1.357102
 C         3.610856        -0.387921         1.010291
 C         3.273150         0.421351        -0.216227
 C         3.739941         1.360517        -1.315963
 O         2.375669         2.072471        -1.180575
 C         2.139905         1.413612         0.049499
 O         2.287570        -0.319234        -1.001617
 H        -0.682972        -0.456765         0.771688
 H        -0.622470         0.573160        -0.623858
 H        -0.269321        -1.127217        -0.832864
 H         1.721344        -0.247953         2.355197
 H         1.823171        -1.712248         1.154312
 H         4.204869         0.083074         1.790130
 H         3.989862        -1.407625         0.648027
 H         4.593654         2.067098        -1.416982
 H         3.659805         0.828816        -2.282813
 H         2.174634         2.062314         0.882343
