19
Iteration:  2315
 C        -0.174075        -0.082270        -0.109821
 C         1.402193        -0.024106        -0.008594
 C         2.122798        -0.508612         1.419237
 C         3.598235        -0.269404         0.972862
 C         3.278592         0.343410        -0.357146
 C         3.738308         1.473705        -1.184812
 O         2.407836         1.990616        -1.314258
 C         2.096333         1.382673        -0.055969
 O         2.308097        -0.655426        -0.918825
 H        -0.341800        -0.619904        -1.030401
 H        -0.593579        -0.267258         0.860779
 H        -0.541634         0.911534        -0.281503
 H         1.952765        -0.009489         2.471624
 H         1.918976        -1.630387         1.529662
 H         4.012616         0.466034         1.790832
 H         4.115395        -1.280302         0.751210
 H         4.399328         2.162328        -0.719620
 H         4.248438         1.270823        -2.140432
 H         2.168826         1.945620         0.873752
