19
Iteration:  1855
 C        -0.056578        -0.136729        -0.208183
 C         1.333182         0.056760         0.112372
 C         2.146768        -0.476480         1.373877
 C         3.595195        -0.331709         0.955892
 C         3.221446         0.443244        -0.327774
 C         3.742998         1.387399        -1.271254
 O         2.388316         1.977369        -1.214154
 C         2.149939         1.327664        -0.006839
 O         2.289346        -0.535025        -0.913330
 H        -0.242930        -1.141217        -0.765217
 H        -0.762372        -0.196699         0.664459
 H        -0.487403         0.499434        -0.990940
 H         1.875166         0.075787         2.301702
 H         1.886647        -1.541863         1.582805
 H         4.137781         0.254108         1.694728
 H         4.119788        -1.197275         0.841560
 H         4.550297         2.011034        -0.951665
 H         3.983561         0.941973        -2.223020
 H         2.045385         2.081973         0.843278
