19
Iteration:  1756charge 0 multiplicity 1
 C        -0.104633        -0.152612        -0.079086
 C         1.377152        -0.051754         0.078036
 C         2.034761        -0.635666         1.452733
 C         3.636300        -0.249422         0.983555
 C         3.263685         0.340996        -0.343745
 C         3.766431         1.491246        -1.240599
 O         2.429783         2.103215        -1.310993
 C         2.123249         1.386487        -0.057664
 O         2.253525        -0.610432        -1.003768
 H        -0.562254        -1.133248         0.069057
 H        -0.452790         0.590296         0.597267
 H        -0.565178         0.126490        -1.014342
 H         1.710729        -0.128376         2.389488
 H         2.097573        -1.716237         1.545984
 H         4.094261         0.509024         1.568744
 H         4.197443        -1.063267         0.868415
 H         4.399345         2.165536        -0.698025
 H         4.180376         1.363898        -2.207060
 H         2.345834         1.951172         0.883049
