19
Iteration:  1737
 C        -0.101738        -0.175894        -0.036622
 C         1.414960         0.093815         0.086363
 C         2.077189        -0.552856         1.262219
 C         3.563443        -0.371347         0.972839
 C         3.304348         0.418680        -0.288527
 C         3.750435         1.455185        -1.315700
 O         2.360876         2.004873        -1.310578
 C         2.102087         1.340072         0.003292
 O         2.348410        -0.526960        -0.897494
 H        -0.429033        -1.216402        -0.164272
 H        -0.651532         0.318323         0.797896
 H        -0.422840         0.275588        -0.956711
 H         1.699737        -0.019348         2.228387
 H         1.882647        -1.669486         1.270081
 H         3.911063         0.127381         1.934628
 H         4.184803        -1.330299         0.892448
 H         4.535530         2.135755        -0.807992
 H         4.142805         1.195273        -2.327337
 H         2.015624         2.150565         0.745172
