19
Iteration:  2616charge 0 multiplicity 1
 C        -0.141827        -0.127994        -0.089915
 C         1.435183        -0.011258         0.076816
 C         2.100395        -0.556356         1.365641
 C         3.589130        -0.238584         1.045726
 C         3.209927         0.427329        -0.248380
 C         3.710303         1.360950        -1.324897
 O         2.440921         2.042377        -1.324313
 C         2.103120         1.339897        -0.005614
 O         2.354059        -0.560095        -0.973585
 H        -0.491373        -0.531855        -1.073327
 H        -0.653495        -0.766420         0.722564
 H        -0.636116         0.815036         0.027099
 H         1.713075         0.030972         2.254309
 H         1.789276        -1.639707         1.258152
 H         4.126786         0.503645         1.739617
 H         4.151262        -1.155052         0.779844
 H         4.476623         1.953741        -0.958627
 H         4.164968         0.920532        -2.249434
 H         2.112686         1.929996         0.923151
