19
Iteration:  4296charge 0 multiplicity 1
 C        -0.211343        -0.227954        -0.144180
 C         1.303043         0.181585         0.098904
 C         1.847809         0.288831         1.601618
 C         3.542959         0.236891         1.339122
 C         3.305047         0.339728        -0.147812
 C         3.911139         0.834303        -1.436191
 O         2.612281         1.332912        -1.868762
 C         2.190955         1.438373        -0.388672
 O         2.321437        -0.679114        -0.506134
 H        -0.395116        -1.242415        -0.504171
 H        -0.886114        -0.215395         0.778702
 H        -0.709569         0.346169        -0.921283
 H         1.519431         1.251022         2.094853
 H         1.591703        -0.606143         2.253697
 H         3.994836         1.195437         1.743744
 H         3.905869        -0.723495         1.697073
 H         4.533136         1.804303        -1.379359
 H         4.432492         0.172616        -2.183233
 H         1.954463         2.531694        -0.166735
