19
Iteration:  2794
 C        -0.025633        -0.213840        -0.249622
 C         1.379688         0.108906         0.145298
 C         1.995083        -0.458275         1.459410
 C         3.576990        -0.405004         1.101477
 C         3.290211         0.364697        -0.205969
 C         3.675791         1.362260        -1.519338
 O         2.426357         1.993832        -1.355008
 C         2.176444         1.451795        -0.003796
 O         2.332738        -0.480791        -0.822214
 H        -0.921692         0.089895         0.311109
 H        -0.429202         0.052439        -1.210819
 H        -0.079966        -1.348778        -0.124555
 H         1.695079         0.107216         2.358815
 H         1.628147        -1.525993         1.675014
 H         4.240288         0.283409         1.739292
 H         4.021474        -1.367786         0.913866
 H         4.475409         2.080532        -1.412008
 H         3.728766         0.730747        -2.412737
 H         2.222124         2.273688         0.765134
