19
Iteration:  4532
 C        -0.118738        -0.141996        -0.119770
 C         1.307694         0.198079         0.147488
 C         1.836780         0.131166         1.643682
 C         3.349273         0.260897         1.394054
 C         3.317016         0.438726        -0.167082
 C         3.924442         0.812644        -1.549651
 O         2.505353         1.265252        -1.878661
 C         2.190240         1.381126        -0.464665
 O         2.437639        -0.581222        -0.479793
 H        -0.349027        -1.172731        -0.023939
 H        -0.564161         0.356539         0.800808
 H        -0.382378         0.196004        -1.090237
 H         1.556063         0.992714         2.423218
 H         1.507361        -0.826548         1.954411
 H         3.890299         1.039622         1.848412
 H         3.787385        -0.725314         1.600487
 H         4.582388         1.832630        -1.469369
 H         4.424578         0.121505        -2.292852
 H         2.329283         2.351915        -0.137077
