19
Iteration:  3050
 C        -0.052165        -0.217425        -0.183248
 C         1.387663         0.062930         0.083663
 C         1.980225        -0.241056         1.538149
 C         3.551793        -0.157003         1.119082
 C         3.269524         0.287621        -0.241003
 C         3.788205         1.203847        -1.403869
 O         2.484504         1.915089        -1.449368
 C         2.101547         1.426587        -0.185788
 O         2.284314        -0.619139        -0.781612
 H        -0.439855         0.130933         0.766122
 H        -0.485238         0.323216        -1.011115
 H        -0.159037        -1.252635        -0.205587
 H         1.627396         0.651590         2.031015
 H         1.585488        -1.119432         1.910736
 H         4.148361         0.500236         1.671838
 H         4.020885        -1.124023         1.110530
 H         4.576201         2.051525        -1.177829
 H         4.061823         0.592802        -2.256803
 H         1.987940         2.220583         0.623153
