19
Iteration:  2723charge 0 multiplicity 1
 C        -0.087443        -0.149928         0.000275
 C         1.323404         0.058593         0.109573
 C         2.030752        -0.526802         1.316205
 C         3.566164        -0.261972         1.042813
 C         3.296327         0.368251        -0.348617
 C         3.802454         1.473860        -1.288254
 O         2.465349         1.957924        -1.379643
 C         2.115090         1.392041        -0.068022
 O         2.310938        -0.590232        -0.926953
 H        -0.753483         0.710026        -0.313957
 H        -0.381485        -0.920207        -0.783485
 H        -0.512879        -0.582655         0.904989
 H         1.518652        -0.071533         2.204942
 H         1.769598        -1.573226         1.450468
 H         3.976800         0.480424         1.785450
 H         4.149833        -1.240002         1.180387
 H         4.638842         2.148490        -0.753949
 H         4.005312         1.015281        -2.288224
 H         2.156436         2.005951         0.834992
