19
Iteration:  3757
 C        -0.088432        -0.267437        -0.197151
 C         1.335626         0.193744         0.095184
 C         1.876610         0.142132         1.667619
 C         3.449510         0.186020         1.375566
 C         3.272963         0.380356        -0.204092
 C         3.904666         0.762178        -1.522258
 O         2.559320         1.518549        -1.786252
 C         2.159329         1.421280        -0.387285
 O         2.317366        -0.596463        -0.484598
 H        -0.543664         0.428158        -0.962304
 H        -0.060899        -1.200167        -0.730934
 H        -0.635395        -0.211398         0.759827
 H         1.440585         1.006456         2.178492
 H         1.540804        -0.702697         2.116195
 H         3.921641         1.106583         1.757434
 H         3.967566        -0.716655         1.727117
 H         4.779510         1.456493        -1.853769
 H         3.943185        -0.016948        -2.227339
 H         2.246881         2.364165         0.131495
