19
Iteration:  2785charge 0 multiplicity 1
 C        -0.077176        -0.220727        -0.244833
 C         1.402356         0.087191         0.082147
 C         2.004315        -0.476684         1.456798
 C         3.636276        -0.328415         1.113133
 C         3.264705         0.428380        -0.246837
 C         3.737186         1.320098        -1.440674
 O         2.409754         2.002725        -1.330278
 C         2.153270         1.428438        -0.015487
 O         2.266901        -0.500274        -0.851802
 H        -0.612743         0.483640         0.439511
 H        -0.214728        -0.289843        -1.304789
 H        -0.169130        -1.307934         0.099453
 H         1.734625         0.125919         2.329523
 H         1.699587        -1.506257         1.622032
 H         4.204327         0.055953         1.912271
 H         4.021890        -1.336799         0.894822
 H         4.551491         1.969094        -1.437057
 H         3.699302         0.782124        -2.358980
 H         2.350516         2.237007         0.760012
