19
Iteration:  1334
 C        -0.179812        -0.151456        -0.029473
 C         1.391882        -0.046759         0.040136
 C         2.063588        -0.474418         1.382438
 C         3.607555        -0.342659         0.969305
 C         3.251546         0.307570        -0.348084
 C         3.781457         1.521292        -1.171563
 O         2.465105         2.163742        -1.316593
 C         2.081012         1.280833        -0.033636
 O         2.316407        -0.595218        -0.998506
 H        -0.521740        -1.066459        -0.547441
 H        -0.775280        -0.201566         0.874890
 H        -0.637007         0.606164        -0.650269
 H         1.732116        -0.234942         2.460867
 H         2.035114        -1.549868         1.269054
 H         4.195641         0.194923         1.667029
 H         4.105934        -1.246857         0.729025
 H         4.604276         2.128325        -0.624767
 H         4.106163         1.364325        -2.242394
 H         2.229562         1.884510         0.882571
