19
Iteration:  3889charge 0 multiplicity 1
 C        -0.078399        -0.235413        -0.200842
 C         1.326524         0.194458         0.153013
 C         1.916839         0.175543         1.622251
 C         3.437236         0.229954         1.377272
 C         3.236908         0.476385        -0.126496
 C         3.832784         0.700059        -1.451762
 O         2.603892         1.429423        -1.813831
 C         2.154361         1.532412        -0.488782
 O         2.330268        -0.695125        -0.510822
 H        -0.499056        -0.653500         0.793205
 H        -0.476353         0.655015        -0.674742
 H         0.015873        -1.052123        -0.986786
 H         1.413951         1.042998         2.223526
 H         1.691173        -0.694056         2.154075
 H         3.981080         1.025818         1.900366
 H         3.989492        -0.708240         1.671645
 H         4.745167         1.420721        -1.633569
 H         3.881366        -0.109379        -2.140162
 H         1.946399         2.527490        -0.237375
