19
Iteration:  4785
 C        -0.121567        -0.182020        -0.088057
 C         1.370294         0.172258         0.111416
 C         1.878255         0.252137         1.576619
 C         3.439638         0.180533         1.337221
 C         3.303649         0.424673        -0.120523
 C         3.908717         0.838396        -1.444913
 O         2.602035         1.426398        -1.815370
 C         2.111967         1.349042        -0.494498
 O         2.321872        -0.697725        -0.550833
 H        -0.488442        -0.942487         0.608872
 H        -0.748645         0.673022         0.219757
 H        -0.412586        -0.457337        -1.143885
 H         1.481699         1.222498         2.105098
 H         1.506736        -0.618127         2.227276
 H         4.018766         0.998713         1.788861
 H         3.960586        -0.797920         1.314204
 H         4.664548         1.606182        -1.256844
 H         4.240193        -0.020085        -2.072646
 H         1.857983         2.336917         0.027088
