19
Iteration:  3500
 C        -0.089835        -0.252257        -0.196533
 C         1.336215         0.147001         0.108509
 C         1.926573         0.109541         1.573024
 C         3.513252         0.120222         1.248225
 C         3.342222         0.275350        -0.243897
 C         3.820615         0.961641        -1.439769
 O         2.571064         1.835980        -1.623906
 C         2.166298         1.398523        -0.344197
 O         2.253586        -0.880212        -0.543993
 H        -0.395032         0.439682        -1.036927
 H        -0.189933        -1.320218        -0.529826
 H        -0.897585        -0.113329         0.619004
 H         1.747079         0.965013         2.106744
 H         1.603194        -0.795278         2.190243
 H         3.838918         1.112798         1.563658
 H         4.113016        -0.752073         1.491186
 H         4.734249         1.561721        -1.465436
 H         3.833592         0.300009        -2.432140
 H         1.786691         2.275168         0.211935
