19
Iteration:  4211
 C        -0.021259        -0.260596        -0.245298
 C         1.320183         0.263263         0.130712
 C         1.891571         0.161418         1.666261
 C         3.509453         0.284335         1.388397
 C         3.219042         0.390805        -0.093123
 C         3.804433         0.707746        -1.507109
 O         2.616715         1.404646        -1.872576
 C         2.147984         1.429053        -0.455750
 O         2.274381        -0.585251        -0.476587
 H         0.053159        -1.397737        -0.267261
 H        -0.628604         0.128551         0.616426
 H        -0.239411         0.222066        -1.206916
 H         1.547856         0.992111         2.343732
 H         1.486959        -0.865672         2.116396
 H         3.870049         1.222638         1.952316
 H         4.008360        -0.644719         1.625885
 H         4.591585         1.410522        -1.544499
 H         4.045690        -0.215913        -2.088740
 H         2.098923         2.412444        -0.081381
