19
Iteration:  2147
 C        -0.099430        -0.162190        -0.167866
 C         1.358155         0.025192         0.109743
 C         2.063255        -0.663524         1.337361
 C         3.651162        -0.288292         1.053004
 C         3.246846         0.447543        -0.233165
 C         3.772559         1.337900        -1.370577
 O         2.446756         1.980201        -1.352064
 C         2.145235         1.440594         0.007186
 O         2.250493        -0.431383        -0.849546
 H        -0.320214        -1.196407         0.122166
 H        -0.652909         0.246293         0.692471
 H        -0.515442         0.261142        -1.060469
 H         1.743333        -0.349332         2.434584
 H         1.945250        -1.731330         1.003145
 H         4.168572         0.354006         1.887908
 H         4.105938        -1.263799         0.663727
 H         4.419805         2.216427        -1.161755
 H         3.924609         0.818449        -2.347017
 H         1.918493         2.325656         0.657427
