19
Iteration:  3982
 C        -0.178083        -0.112286        -0.056348
 C         1.375123         0.210082         0.147585
 C         1.793732         0.094391         1.579407
 C         3.364704         0.325239         1.382292
 C         3.308336         0.474623        -0.098679
 C         3.991235         0.819534        -1.485238
 O         2.558585         1.308596        -2.009438
 C         2.173884         1.320550        -0.515175
 O         2.391483        -0.628543        -0.425998
 H        -0.189888        -1.144006        -0.303932
 H        -0.755209         0.022883         0.883789
 H        -0.713478         0.454069        -0.790416
 H         1.301017         0.661457         2.275967
 H         1.812274        -1.002464         1.884306
 H         3.719553         1.219616         1.970109
 H         3.939858        -0.533947         1.705396
 H         4.758345         1.667525        -1.391269
 H         4.387227        -0.154293        -1.998571
 H         2.144951         2.425076        -0.231162
