19
Iteration:  3198
 C        -0.154502        -0.318715        -0.171272
 C         1.345704         0.136803         0.116217
 C         2.011055        -0.125576         1.593715
 C         3.527459        -0.095436         1.219357
 C         3.267697         0.351668        -0.270441
 C         3.841895         1.083984        -1.451197
 O         2.511112         1.881753        -1.536881
 C         2.157008         1.413982        -0.263486
 O         2.270306        -0.628811        -0.723849
 H        -0.103815        -0.273650        -1.303027
 H        -0.347167        -1.315872         0.255901
 H        -0.768247         0.512890         0.275068
 H         1.765719         0.692940         2.299877
 H         1.531381        -1.045196         1.939563
 H         4.202533         0.575404         1.807413
 H         3.999198        -1.116446         1.190183
 H         4.576830         1.840863        -1.127109
 H         4.122457         0.559160        -2.387663
 H         2.108236         2.259685         0.437072
