19
Iteration:  1085
 C        -0.043060        -0.170784        -0.150888
 C         1.392901         0.040204         0.067690
 C         2.106605        -0.524329         1.413957
 C         3.584745        -0.429247         0.997278
 C         3.335581         0.417946        -0.246182
 C         3.720643         1.373068        -1.323275
 O         2.422736         2.105017        -1.211663
 C         2.031756         1.314567         0.062240
 O         2.268713        -0.489957        -1.046005
 H        -0.286556        -1.254260        -0.395939
 H        -0.680938         0.205331         0.695076
 H        -0.286557         0.420058        -1.078619
 H         1.685293         0.060528         2.251149
 H         1.775961        -1.501630         1.527778
 H         4.274478         0.184213         1.649595
 H         4.201889        -1.357948         0.817214
 H         4.540440         2.153364        -1.163466
 H         3.881138         1.005030        -2.359562
 H         1.826971         2.094806         0.824329
