19
Iteration:  4275charge 0 multiplicity 1
 C        -0.072969        -0.048727        -0.071680
 C         1.338238         0.135158         0.121433
 C         1.901594         0.244657         1.556814
 C         3.368270         0.288502         1.313391
 C         3.271833         0.392081        -0.209202
 C         3.964921         0.930461        -1.373948
 O         2.591270         1.408951        -1.876111
 C         2.087061         1.246621        -0.535148
 O         2.362081        -0.859199        -0.431198
 H        -0.419105        -1.035414        -0.457027
 H        -0.702134        -0.067318         0.887353
 H        -0.520108         0.637166        -0.796076
 H         1.638269         1.227412         2.081157
 H         1.437540        -0.631744         2.192679
 H         3.876180         1.211252         1.746469
 H         3.756192        -0.695691         1.535943
 H         4.567995         1.828000        -1.232143
 H         4.453274         0.294576        -2.145582
 H         1.906747         2.241298        -0.028896
