19
Iteration:  4221
 C        -0.024306        -0.186845        -0.167638
 C         1.368494         0.233647         0.153387
 C         1.827138         0.177043         1.596675
 C         3.477019         0.319434         1.336540
 C         3.281414         0.434758        -0.158748
 C         3.875799         0.717278        -1.447560
 O         2.594818         1.351857        -1.828391
 C         2.123099         1.453986        -0.388859
 O         2.279400        -0.663043        -0.521726
 H         0.003811        -1.281442        -0.448870
 H        -0.925782        -0.090278         0.546800
 H        -0.440014         0.246550        -1.091208
 H         1.359483         0.935496         2.319447
 H         1.634328        -0.949391         1.947694
 H         4.108974         1.239582         1.680973
 H         4.008563        -0.513210         1.798619
 H         4.696642         1.346498        -1.486268
 H         3.976531        -0.139745        -2.135811
 H         1.997761         2.478204        -0.123425
