19
Iteration:  2913charge 0 multiplicity 1
 C        -0.155522        -0.251501        -0.195812
 C         1.389977         0.075361         0.146210
 C         2.065840        -0.396250         1.450465
 C         3.531564        -0.291990         1.090656
 C         3.289704         0.498760        -0.178843
 C         3.774490         1.218489        -1.398035
 O         2.498013         1.913647        -1.425322
 C         2.129153         1.454475        -0.074565
 O         2.285192        -0.513607        -0.823863
 H        -0.207559        -1.049157        -0.947394
 H        -0.630760        -0.718065         0.672333
 H        -0.672851         0.505392        -0.788807
 H         1.682023         0.456071         2.101918
 H         1.743019        -1.410962         1.945441
 H         4.185537         0.439372         1.697391
 H         4.068438        -1.198994         0.815228
 H         4.674197         1.996518        -1.295311
 H         3.699403         0.752569        -2.436028
 H         2.173056         2.242811         0.638681
