19
Iteration:  2778
 C        -0.056775        -0.255530        -0.181737
 C         1.339724         0.067970         0.077113
 C         2.059451        -0.465687         1.447676
 C         3.572304        -0.286441         1.067994
 C         3.334531         0.474828        -0.265824
 C         3.727453         1.257363        -1.389703
 O         2.408605         2.020546        -1.312986
 C         2.177054         1.420140        -0.026409
 O         2.259690        -0.529840        -0.892863
 H        -0.687433         0.629247         0.176774
 H        -0.140087        -0.109058        -1.314345
 H        -0.501757        -1.109577         0.301406
 H         1.772821         0.167419         2.305375
 H         1.792582        -1.511636         1.508145
 H         4.132308         0.197161         1.911214
 H         4.067473        -1.265748         0.839834
 H         4.662111         1.940585        -1.193008
 H         3.907774         0.742573        -2.379392
 H         2.001085         2.023860         0.881851
