19
Iteration:   439charge 0 multiplicity 1
 C        -0.170778        -0.202927        -0.221810
 C         1.364633         0.009906         0.032651
 C         2.093425        -0.491029         1.405546
 C         3.623377        -0.271194         0.987993
 C         3.289041         0.365164        -0.333970
 C         3.701144         1.338659        -1.369570
 O         2.449669         2.069504        -1.146856
 C         2.162363         1.271351         0.078966
 O         2.290401        -0.466842        -0.949998
 H        -0.251711        -0.921148        -1.097179
 H        -0.652000        -0.626403         0.696338
 H        -0.538150         0.830588        -0.456434
 H         1.751415         0.242614         2.152961
 H         1.822986        -1.575488         1.686964
 H         4.135670         0.485904         1.677169
 H         4.441077        -1.114351         0.912898
 H         4.559330         1.967146        -1.064777
 H         3.750974         1.001253        -2.413121
 H         1.926814         1.933983         0.992014
