19
Iteration:    69charge 0 multiplicity 1
 C        -0.015889        -0.280330        -0.168478
 C         1.348876         0.045101         0.104559
 C         2.150561        -0.798846         1.242575
 C         3.634792        -0.474982         0.884270
 C         3.269383         0.412433        -0.274063
 C         3.682017         1.459203        -1.233399
 O         2.432443         2.230606        -1.121223
 C         2.174128         1.464619         0.128397
 O         2.145941        -0.391096        -1.033185
 H        -0.429461        -1.142457         0.270533
 H        -0.663276         0.554279         0.160825
 H        -0.207804        -0.367473        -1.257999
 H         1.856280        -0.633247         2.331777
 H         1.890093        -1.796835         1.067661
 H         4.155590         0.126124         1.715108
 H         4.265238        -1.287471         0.587756
 H         4.567531         2.098621        -0.955064
 H         3.774894         1.076869        -2.224086
 H         2.151019         2.132726         1.063985
