19
Iteration:  4825
 C        -0.140650        -0.058372        -0.076350
 C         1.306803         0.123893         0.149565
 C         1.822609         0.176828         1.722162
 C         3.405834         0.319391         1.319712
 C         3.314388         0.271326        -0.222304
 C         3.904012         0.895112        -1.470392
 O         2.582839         1.492555        -1.883150
 C         2.207752         1.252274        -0.554379
 O         2.370884        -0.803304        -0.468772
 H        -0.339404        -1.094193        -0.276661
 H        -0.712081         0.439996         0.798570
 H        -0.274933         0.545899        -1.002400
 H         1.464069         0.943734         2.331786
 H         1.617628        -0.779964         1.994068
 H         3.725997         1.292071         1.666783
 H         3.904743        -0.522986         1.909693
 H         4.571176         1.742728        -1.236301
 H         4.335809         0.438937        -2.371436
 H         2.151141         2.271133        -0.112765
