19
Iteration:  1760
 C        -0.116716        -0.159124        -0.084618
 C         1.395456        -0.015799         0.081677
 C         2.039196        -0.632281         1.494195
 C         3.632442        -0.235846         0.952364
 C         3.260402         0.345995        -0.341989
 C         3.790307         1.493356        -1.246657
 O         2.438897         2.109832        -1.290082
 C         2.087011         1.342045        -0.050946
 O         2.234592        -0.623373        -1.041382
 H        -0.600462        -1.119116         0.113677
 H        -0.544294         0.644682         0.588495
 H        -0.495439         0.087718        -1.083015
 H         1.668400        -0.105686         2.447151
 H         2.195595        -1.749125         1.602192
 H         4.046991         0.548745         1.672565
 H         4.419670        -1.145470         0.962433
 H         4.533048         2.196350        -0.705005
 H         4.207861         1.336447        -2.296232
 H         2.275272         1.963046         0.836817
