19
Iteration:  1241charge 0 multiplicity 1
 C        -0.085076        -0.166806        -0.224006
 C         1.347459         0.039357         0.068102
 C         2.094947        -0.569849         1.412884
 C         3.673830        -0.374701         0.967265
 C         3.254633         0.424401        -0.310227
 C         3.674125         1.374185        -1.329565
 O         2.385797         2.151838        -1.151383
 C         2.144079         1.396537         0.016658
 O         2.299435        -0.567508        -0.956308
 H        -0.291875        -1.282868        -0.129285
 H        -0.920594         0.481557         0.215292
 H        -0.105271         0.023165        -1.345212
 H         2.055792        -0.019649         2.311529
 H         1.733154        -1.617087         1.687117
 H         4.244373         0.206500         1.801949
 H         4.178011        -1.453863         0.954051
 H         4.545017         1.907577        -1.026544
 H         3.803995         1.023074        -2.377182
 H         2.088158         2.017008         0.913277
