19
Iteration:  2659
 C        -0.051521        -0.260527        -0.244438
 C         1.394924         0.088394         0.088676
 C         2.057396        -0.456957         1.443162
 C         3.588597        -0.309693         1.000610
 C         3.231316         0.333271        -0.336080
 C         3.701757         1.332180        -1.380810
 O         2.386214         2.121640        -1.231326
 C         2.193463         1.428348         0.049075
 O         2.273034        -0.566598        -0.851527
 H        -0.105085        -0.303897        -1.351976
 H        -0.351050        -1.321252        -0.022666
 H        -0.516858         0.597524         0.100459
 H         1.752551         0.247833         2.294149
 H         2.005109        -1.576224         1.603654
 H         4.306011         0.232995         1.733681
 H         3.931462        -1.408078         0.884999
 H         4.640261         1.858830        -1.304876
 H         3.618372         0.910477        -2.409178
 H         2.320233         2.132097         0.855073
