19
Iteration:  2935
 C        -0.044909        -0.229598        -0.304529
 C         1.390764         0.120437         0.157983
 C         2.031773        -0.257937         1.602270
 C         3.606232        -0.275359         1.089434
 C         3.309228         0.344742        -0.292318
 C         3.714471         1.203112        -1.422772
 O         2.430417         2.019062        -1.411954
 C         2.092481         1.396135        -0.070408
 O         2.276050        -0.599704        -0.787882
 H        -0.104054        -0.571236        -1.345952
 H        -0.393686        -1.007444         0.367593
 H        -0.490617         0.773190        -0.409388
 H         1.710893         0.209784         2.594132
 H         1.660679        -1.377817         1.569417
 H         4.316830         0.382359         1.747751
 H         3.971050        -1.299927         0.898078
 H         4.597281         1.946749        -1.135821
 H         3.845410         0.636862        -2.433510
 H         1.927087         2.085649         0.726062
