19
Iteration:  4463
 C        -0.129444        -0.287993        -0.161277
 C         1.325461         0.151702         0.131418
 C         1.908314         0.287433         1.558786
 C         3.467071         0.317080         1.391050
 C         3.319077         0.305707        -0.180494
 C         3.846086         0.851966        -1.562670
 O         2.645148         1.595991        -1.806655
 C         2.206596         1.291394        -0.429937
 O         2.225442        -0.754448        -0.440328
 H        -0.780818        -0.655819         0.671557
 H        -0.695593         0.535780        -0.442213
 H        -0.186569        -1.029132        -0.968231
 H         1.596357         1.150994         2.158443
 H         1.650741        -0.712886         2.078705
 H         3.745649         1.245540         1.824122
 H         4.019986        -0.514315         1.810056
 H         4.913785         1.429120        -1.562006
 H         3.896857         0.021140        -2.301291
 H         2.144647         2.142173         0.209943
