19
Iteration:  1153charge 0 multiplicity 1
 C        -0.131273        -0.229531        -0.151410
 C         1.390277         0.048858         0.127760
 C         2.097679        -0.666017         1.340085
 C         3.560311        -0.319547         0.976929
 C         3.286614         0.487374        -0.264150
 C         3.786634         1.319481        -1.330309
 O         2.377318         2.056841        -1.274483
 C         2.135878         1.389826         0.064280
 O         2.297375        -0.363266        -0.993961
 H        -0.315134        -1.297011        -0.476673
 H        -0.670985         0.048928         0.837272
 H        -0.487937         0.484104        -0.939824
 H         1.963880        -0.202501         2.298680
 H         1.925381        -1.786441         1.439468
 H         3.928221         0.229791         1.877026
 H         4.136827        -1.321728         1.121915
 H         4.789926         1.758512        -1.144198
 H         3.879120         0.709771        -2.300531
 H         2.085142         2.032274         0.912277
