19
Iteration:   401
 C        -0.060508        -0.254757        -0.105883
 C         1.375709         0.102882         0.069707
 C         1.994277        -0.699961         1.300100
 C         3.605124        -0.387158         0.997875
 C         3.331597         0.425157        -0.252214
 C         3.726404         1.416900        -1.341559
 O         2.445287         2.063113        -1.405348
 C         2.118928         1.452529        -0.008124
 O         2.271050        -0.399371        -0.767434
 H        -0.169928        -0.992058        -0.870433
 H        -0.366271        -0.691378         0.856317
 H        -0.776202         0.508580        -0.326245
 H         1.796999        -0.420397         2.347315
 H         1.753895        -1.710490         1.177416
 H         3.953510         0.144500         1.867581
 H         3.976879        -1.296210         0.722767
 H         4.572829         2.035619        -0.882478
 H         4.137922         1.065044        -2.338113
 H         2.105963         2.186384         0.783518
