19
Iteration:  1613charge 0 multiplicity 1
 C        -0.140870        -0.177311        -0.008982
 C         1.377368         0.099083         0.121302
 C         2.018746        -0.702586         1.243733
 C         3.639633        -0.391729         1.040882
 C         3.312953         0.427160        -0.217156
 C         3.789676         1.427413        -1.312935
 O         2.359758         1.988803        -1.379246
 C         2.118557         1.473532        -0.030803
 O         2.338485        -0.451321        -0.918091
 H        -0.346808        -1.179660         0.258156
 H        -0.772009         0.534475         0.467415
 H        -0.315257        -0.153835        -1.086191
 H         1.958695        -0.332507         2.323330
 H         1.740767        -1.755473         1.138701
 H         4.003036         0.077972         1.908766
 H         4.103990        -1.274470         0.837772
 H         4.435962         2.297379        -0.997537
 H         4.082139         1.130228        -2.327347
 H         2.089948         2.298429         0.692826
