19
Iteration:  2453
 C        -0.133569        -0.127060        -0.042361
 C         1.343240         0.034646         0.136285
 C         1.995767        -0.537280         1.434178
 C         3.592267        -0.362796         1.031646
 C         3.288734         0.486643        -0.213679
 C         3.797596         1.402408        -1.304700
 O         2.432139         1.927671        -1.423977
 C         2.102351         1.379916        -0.128538
 O         2.352292        -0.513194        -0.933441
 H        -0.568457         0.863722        -0.394274
 H        -0.382882        -1.002114        -0.739455
 H        -0.542099        -0.420768         0.902501
 H         1.914014        -0.277990         2.416655
 H         1.931262        -1.625267         1.280597
 H         4.073156         0.304246         1.739754
 H         3.957240        -1.313966         0.826150
 H         4.499464         2.291306        -1.110634
 H         4.262582         1.110377        -2.285778
 H         2.013344         2.224647         0.618997
