19
Iteration:  4812charge 0 multiplicity 1
 C        -0.168820        -0.019376        -0.079233
 C         1.366948         0.143086         0.100612
 C         1.865201         0.212797         1.563518
 C         3.383360         0.284161         1.357598
 C         3.285678         0.275366        -0.203608
 C         3.897219         0.961907        -1.518481
 O         2.623618         1.474052        -1.851610
 C         2.117057         1.279533        -0.450902
 O         2.414684        -0.885889        -0.460225
 H        -0.480788        -1.062230         0.151941
 H        -0.708900         0.453762         0.749040
 H        -0.650713         0.245719        -0.984828
 H         1.452456         1.084317         2.009096
 H         1.524018        -0.543034         2.234263
 H         3.864508         1.202134         1.698859
 H         4.028739        -0.557374         1.596772
 H         4.607959         1.756452        -1.059681
 H         4.365037         0.277543        -2.251683
 H         1.982300         2.153565         0.095095
