19
Iteration:  2349
 C        -0.116081        -0.220976        -0.171412
 C         1.410607         0.064469         0.058283
 C         2.078619        -0.556467         1.425621
 C         3.582156        -0.399083         1.101943
 C         3.315712         0.395108        -0.296082
 C         3.690921         1.358004        -1.388576
 O         2.393733         2.013278        -1.328860
 C         2.189173         1.463552         0.026968
 O         2.290242        -0.439200        -0.902383
 H        -0.268720        -0.663652        -1.142927
 H        -0.686957        -0.901299         0.461494
 H        -0.628244         0.755305        -0.275684
 H         1.793198        -0.040876         2.399031
 H         1.704106        -1.596777         1.551496
 H         4.127431         0.145612         1.931501
 H         4.361427        -1.218971         0.897108
 H         4.438649         2.103810        -1.158067
 H         3.745271         0.867254        -2.365170
 H         2.203206         2.218394         0.812833
