19
Iteration:  1630charge 0 multiplicity 1
 C        -0.094161        -0.187458        -0.068808
 C         1.405147        -0.017246        -0.006193
 C         2.086084        -0.555163         1.346834
 C         3.566730        -0.336394         1.013714
 C         3.260232         0.465493        -0.261530
 C         3.774821         1.394469        -1.321037
 O         2.400217         2.058939        -1.288803
 C         2.095600         1.350657        -0.005638
 O         2.333186        -0.479809        -0.959735
 H        -0.549478        -1.105612         0.427502
 H        -0.479140         0.475414         0.818498
 H        -0.628052         0.159622        -0.979011
 H         1.634075        -0.224840         2.282969
 H         1.896110        -1.650376         1.316280
 H         4.236003         0.253041         1.729500
 H         4.126881        -1.363020         0.769778
 H         4.492563         2.040050        -0.855693
 H         3.984179         0.796923        -2.233463
 H         1.966717         2.091235         0.817660
