19
Iteration:  1938
 C        -0.090969        -0.290457        -0.165055
 C         1.358419         0.115438         0.140845
 C         2.098194        -0.594581         1.422440
 C         3.538002        -0.421763         1.039845
 C         3.228709         0.496168        -0.286647
 C         3.758111         1.358713        -1.405264
 O         2.455149         2.041461        -1.304829
 C         2.132526         1.468562         0.023608
 O         2.306779        -0.449449        -0.920260
 H        -0.232246        -1.347765        -0.177864
 H        -0.882084         0.190221         0.373502
 H        -0.220221         0.222968        -1.128736
 H         1.881474        -0.082166         2.391913
 H         1.947938        -1.663650         1.489390
 H         4.126853         0.112691         1.834690
 H         3.913637        -1.493432         0.724406
 H         4.558135         2.107829        -1.095414
 H         3.885957         0.759221        -2.315841
 H         2.099156         2.250861         0.762695
