19
Iteration:  2897
 C        -0.092360        -0.264449        -0.064488
 C         1.336171         0.096517         0.048612
 C         1.971645        -0.390222         1.458150
 C         3.567505        -0.238776         1.129821
 C         3.296205         0.446571        -0.239101
 C         3.830033         1.274122        -1.386120
 O         2.477690         1.914661        -1.432034
 C         2.153780         1.379099        -0.076519
 O         2.290941        -0.493246        -0.912567
 H        -0.308786        -1.277457        -0.552969
 H        -0.713898        -0.063989         0.860308
 H        -0.750065         0.358204        -0.771334
 H         1.736772         0.121328         2.381192
 H         1.802340        -1.424270         1.495460
 H         4.096988         0.300296         1.866871
 H         3.975379        -1.263245         1.106892
 H         4.513841         2.025620        -1.198611
 H         4.145108         0.674488        -2.228135
 H         1.998055         2.278679         0.597544
