19
Iteration:  4277charge 0 multiplicity 1
 C        -0.093040        -0.060653        -0.077497
 C         1.328545         0.138364         0.115040
 C         1.898406         0.250418         1.561650
 C         3.377281         0.281378         1.304121
 C         3.269976         0.407046        -0.211341
 C         3.962818         0.941648        -1.379222
 O         2.595851         1.388309        -1.860956
 C         2.090469         1.251058        -0.530713
 O         2.361458        -0.839369        -0.431809
 H        -0.382590        -1.107459        -0.467417
 H        -0.641925        -0.059093         0.859261
 H        -0.541585         0.658705        -0.799787
 H         1.639334         1.217783         2.053056
 H         1.406708        -0.610905         2.218988
 H         3.897860         1.175922         1.717431
 H         3.839106        -0.664553         1.499022
 H         4.584153         1.733684        -1.183356
 H         4.401957         0.272987        -2.114082
 H         2.020874         2.160986         0.003701
