19
Iteration:  3414
 C        -0.147808        -0.044483        -0.112926
 C         1.317836         0.106366         0.147623
 C         1.910857        -0.130703         1.535050
 C         3.496585         0.105159         1.260098
 C         3.268182         0.381126        -0.237866
 C         3.981618         1.146203        -1.459774
 O         2.459516         1.543305        -1.744852
 C         2.122427         1.291547        -0.253766
 O         2.354978        -0.697864        -0.630493
 H        -0.318648        -0.907180        -0.756610
 H        -0.670642        -0.197597         0.835504
 H        -0.400292         0.877752        -0.680285
 H         1.594480         0.640312         2.245648
 H         1.793944        -1.300586         1.969797
 H         3.804399         0.936089         1.884322
 H         4.261076        -0.614540         1.464918
 H         4.430401         1.988814        -1.051973
 H         4.526607         0.570249        -2.284938
 H         2.096289         2.297103         0.322533
