19
Iteration:  3676charge 0 multiplicity 1
 C        -0.096970        -0.173360        -0.124563
 C         1.358975         0.154730         0.095158
 C         1.897001         0.050953         1.580989
 C         3.461967         0.158032         1.292313
 C         3.288234         0.474307        -0.143573
 C         3.965714         0.884921        -1.416276
 O         2.534148         1.424393        -1.779153
 C         2.137541         1.421367        -0.369693
 O         2.300680        -0.634045        -0.581393
 H        -0.404043        -1.068035        -0.642225
 H        -0.705192        -0.051540         0.818011
 H        -0.660228         0.509242        -0.782282
 H         1.530699         0.829456         2.234430
 H         1.625509        -1.001827         2.028768
 H         3.911723         0.936746         1.875561
 H         3.976896        -0.760938         1.513351
 H         4.532563         1.816648        -1.377166
 H         4.295003         0.180779        -2.271916
 H         1.944008         2.395283        -0.110519
