19
Iteration:   777charge 0 multiplicity 1
 C        -0.134349        -0.147128        -0.127745
 C         1.317867        -0.025614         0.066894
 C         2.093580        -0.586353         1.356685
 C         3.625010        -0.227664         0.909703
 C         3.315045         0.341679        -0.367807
 C         3.807361         1.434625        -1.240106
 O         2.374936         2.056753        -1.180422
 C         2.139270         1.281160        -0.005367
 O         2.274794        -0.530064        -0.966228
 H        -0.742771        -0.994380         0.315557
 H        -0.500331         0.853373         0.324060
 H        -0.496803         0.026745        -1.164883
 H         1.781713        -0.143946         2.325654
 H         1.896412        -1.704774         1.521868
 H         4.127825         0.512096         1.543559
 H         4.416665        -1.044162         0.993835
 H         4.452450         2.097062        -0.707501
 H         4.128655         1.286667        -2.264049
 H         2.118074         1.936349         0.840816
