19
Iteration:  2585charge 0 multiplicity 1
 C        -0.180094        -0.229834        -0.060233
 C         1.426195         0.105734         0.159225
 C         2.089585        -0.619218         1.370271
 C         3.554110        -0.355271         1.078301
 C         3.251761         0.447995        -0.270916
 C         3.809289         1.468358        -1.391389
 O         2.460742         1.918242        -1.421572
 C         2.116898         1.401448        -0.034399
 O         2.286003        -0.413370        -0.905206
 H        -0.459300        -0.646423        -1.057441
 H        -0.498755        -1.120198         0.622336
 H        -0.668164         0.756457         0.132484
 H         1.571293        -0.460713         2.343128
 H         1.695648        -1.675993         1.064950
 H         4.209444         0.225859         1.844390
 H         4.121756        -1.248291         0.977030
 H         4.462211         2.285415        -0.801159
 H         4.316322         1.064054        -2.374892
 H         2.035900         2.221541         0.755794
