19
Iteration:   671
 C        -0.119355        -0.155138        -0.100074
 C         1.351995        -0.010314         0.052097
 C         2.035142        -0.546885         1.375229
 C         3.599497        -0.230517         0.966549
 C         3.292475         0.381045        -0.379087
 C         3.715143         1.409033        -1.278156
 O         2.440337         2.169738        -1.168704
 C         2.217157         1.343653        -0.074092
 O         2.287139        -0.687901        -0.943165
 H        -0.356533        -0.936714        -0.802959
 H        -0.582820        -0.549468         0.767950
 H        -0.686922         0.673922        -0.469731
 H         1.658202        -0.033719         2.290641
 H         1.812364        -1.584275         1.418981
 H         4.036867         0.521382         1.629986
 H         4.191377        -1.154584         0.931354
 H         4.590334         2.061819        -0.788420
 H         3.956395         1.053450        -2.300279
 H         2.183290         2.053179         0.854303
