19
Iteration:  3353charge 0 multiplicity 1
 C        -0.070180        -0.333124        -0.218597
 C         1.291012         0.154081         0.128775
 C         1.933151        -0.051901         1.623810
 C         3.508279        -0.044293         1.303496
 C         3.270981         0.391620        -0.182087
 C         3.793713         0.961394        -1.581740
 O         2.581100         1.807113        -1.665865
 C         2.171832         1.520489        -0.225081
 O         2.311920        -0.630891        -0.624795
 H        -0.268821        -1.267287         0.440852
 H        -0.829017         0.499090        -0.073995
 H        -0.202474        -0.616187        -1.265133
 H         1.573641         0.626442         2.445141
 H         1.672360        -0.944466         2.044923
 H         4.074282         0.683859         1.935555
 H         3.859773        -1.141935         1.284094
 H         4.739144         1.662870        -1.830995
 H         3.868882         0.193812        -2.338097
 H         1.990005         2.405420         0.318178
