19
Iteration:  1479charge 0 multiplicity 1
 C        -0.090357        -0.192181        -0.087775
 C         1.347016         0.081200         0.099581
 C         2.122123        -0.706828         1.419500
 C         3.564168        -0.427710         0.944593
 C         3.286909         0.458379        -0.243946
 C         3.767347         1.434766        -1.264779
 O         2.483602         2.011886        -1.428215
 C         2.064927         1.440698         0.023149
 O         2.286557        -0.420913        -0.915717
 H        -0.418036        -1.179006        -0.300225
 H        -0.655252        -0.024161         0.829841
 H        -0.732198         0.307678        -0.764452
 H         1.759858        -0.386934         2.473315
 H         1.770673        -1.793530         1.279779
 H         3.900223         0.200433         1.670298
 H         4.333686        -1.169412         0.711844
 H         4.481708         2.257884        -1.022603
 H         4.155780         1.081231        -2.300547
 H         1.885111         2.300459         0.731395
