19
Iteration:  3840charge 0 multiplicity 1
 C        -0.140198        -0.040731        -0.077430
 C         1.330073         0.151414         0.055975
 C         1.864498         0.157343         1.619712
 C         3.388947         0.308513         1.309414
 C         3.340076         0.293664        -0.203824
 C         3.862163         0.942481        -1.421215
 O         2.639497         1.434433        -1.889295
 C         2.132841         1.291275        -0.451730
 O         2.367452        -0.817247        -0.470134
 H        -0.477231         0.216684         0.918355
 H        -0.533141         0.525846        -0.949482
 H        -0.310199        -1.087714        -0.254482
 H         1.389856         0.951451         2.172072
 H         1.405923        -0.863149         2.055587
 H         3.679754         1.286128         1.724677
 H         4.054890        -0.389995         1.778709
 H         4.454388         1.708127        -1.076660
 H         4.361524         0.296987        -2.204278
 H         2.078128         2.305180         0.098221
