19
Iteration:  2844
 C        -0.180593        -0.127073        -0.164303
 C         1.369080         0.015802         0.084302
 C         2.091240        -0.423740         1.450762
 C         3.620396        -0.188863         1.082769
 C         3.307063         0.316347        -0.341958
 C         3.791697         1.318900        -1.329274
 O         2.455666         1.952090        -1.341830
 C         2.059141         1.366298        -0.079298
 O         2.324048        -0.570334        -0.883033
 H        -0.887595        -0.628769         0.512393
 H        -0.684756         0.860431        -0.185839
 H        -0.444300        -0.684203        -1.020297
 H         1.980270         0.136245         2.376122
 H         1.780346        -1.456693         1.603929
 H         3.899934         0.463736         1.881245
 H         4.206729        -1.091007         1.106644
 H         4.641779         1.920874        -0.881050
 H         4.000220         0.940263        -2.349726
 H         1.886218         2.198490         0.607390
