19
Iteration:  1945
 C        -0.085475        -0.270141        -0.214206
 C         1.406920         0.048429         0.195256
 C         2.033846        -0.554476         1.443896
 C         3.558704        -0.407864         0.980787
 C         3.249262         0.425899        -0.312417
 C         3.737032         1.420402        -1.408138
 O         2.454263         2.065867        -1.298562
 C         2.181171         1.440628         0.021416
 O         2.264784        -0.447529        -0.852567
 H        -0.102209        -1.370897        -0.206385
 H        -0.814310         0.365610         0.359947
 H        -0.150054        -0.057130        -1.311641
 H         1.810154        -0.048900         2.439995
 H         1.826906        -1.688182         1.542566
 H         4.244060         0.059803         1.647234
 H         3.875427        -1.406751         0.724007
 H         4.575294         2.037127        -1.176852
 H         3.959154         0.868625        -2.347255
 H         1.838138         2.227557         0.765938
