19
Iteration:  2619
 C        -0.135674        -0.148022        -0.101247
 C         1.406622        -0.037424         0.053627
 C         2.102375        -0.535719         1.383756
 C         3.587643        -0.237950         1.062271
 C         3.235021         0.383929        -0.281495
 C         3.730016         1.368432        -1.328494
 O         2.427048         2.046950        -1.303982
 C         2.104114         1.350748         0.001501
 O         2.353854        -0.551281        -0.961226
 H        -0.467206        -0.450005        -1.090655
 H        -0.691779        -0.691383         0.719607
 H        -0.688750         0.882846         0.026288
 H         1.734117         0.001013         2.233394
 H         1.782320        -1.635802         1.336549
 H         4.182332         0.519615         1.651565
 H         4.093888        -1.099858         0.786167
 H         4.635177         2.046151        -1.013526
 H         4.063661         0.930870        -2.361367
 H         2.048762         1.940634         0.967466
