19
Iteration:  2566charge 0 multiplicity 1
 C        -0.111076        -0.250997        -0.072565
 C         1.368116         0.061558         0.130241
 C         2.008690        -0.587696         1.382908
 C         3.568030        -0.318163         1.014272
 C         3.312774         0.385946        -0.224980
 C         3.794406         1.408674        -1.291200
 O         2.378316         2.007010        -1.400278
 C         2.205903         1.443812        -0.036127
 O         2.285663        -0.455765        -0.938721
 H        -0.270325        -0.427758        -1.115087
 H        -0.436860        -1.191251         0.336192
 H        -0.863124         0.573285         0.209289
 H         1.913721         0.028812         2.224770
 H         1.787917        -1.648146         1.529322
 H         4.141498         0.278351         1.709628
 H         4.053770        -1.237851         0.784888
 H         4.677187         2.071693        -1.102803
 H         4.020697         0.910146        -2.252262
 H         2.133111         2.214869         0.760740
