19
Iteration:   786charge 0 multiplicity 1
 C        -0.105457        -0.107519        -0.133699
 C         1.398772        -0.032651         0.019360
 C         2.117908        -0.542797         1.389854
 C         3.632606        -0.188746         0.946736
 C         3.246641         0.412210        -0.340928
 C         3.705868         1.406700        -1.257272
 O         2.420265         1.997332        -1.130421
 C         2.118764         1.263979         0.046297
 O         2.250999        -0.538065        -1.080784
 H        -0.529434        -0.948504         0.503416
 H        -0.438444         0.901324         0.331377
 H        -0.325669        -0.197857        -1.234865
 H         1.770360        -0.059490         2.277166
 H         1.889171        -1.679723         1.400349
 H         3.983665         0.568066         1.630020
 H         4.271947        -1.122644         0.821472
 H         4.523388         1.922149        -0.641748
 H         4.201094         1.017430        -2.178130
 H         2.074091         1.820609         0.914043
