19
Iteration:  1124
 C        -0.089221        -0.199452        -0.243606
 C         1.359889         0.087151         0.176834
 C         2.040987        -0.515965         1.396739
 C         3.668129        -0.324443         0.956749
 C         3.307753         0.381676        -0.346355
 C         3.744025         1.497245        -1.380182
 O         2.410917         2.112649        -1.148207
 C         2.152542         1.336205         0.012073
 O         2.223752        -0.642809        -0.939775
 H        -0.084882        -1.137742        -0.761040
 H        -0.787210        -0.225182         0.573440
 H        -0.399105         0.610109        -0.894067
 H         1.885552        -0.064483         2.431646
 H         1.788500        -1.635565         1.409267
 H         4.139389         0.269234         1.727761
 H         4.018573        -1.304123         0.999647
 H         4.727468         1.909040        -1.027572
 H         3.746319         1.099519        -2.385390
 H         2.144220         1.922131         0.962332
