19
Iteration:  2652
 C        -0.043182        -0.224941        -0.227629
 C         1.349418         0.024340         0.075966
 C         2.077034        -0.437146         1.415653
 C         3.591311        -0.296225         1.071469
 C         3.269651         0.341767        -0.337256
 C         3.673568         1.365940        -1.396287
 O         2.416425         2.121494        -1.235843
 C         2.208480         1.376502         0.062553
 O         2.261075        -0.603607        -0.898842
 H        -0.010167        -0.323832        -1.308959
 H        -0.429142        -1.178206         0.214965
 H        -0.759408         0.666967        -0.009291
 H         1.830917         0.137897         2.283204
 H         1.588888        -1.410549         1.715217
 H         4.326833         0.299541         1.635095
 H         4.134605        -1.140109         0.787254
 H         4.558327         1.986220        -1.210722
 H         3.588032         0.985937        -2.428777
 H         2.359097         1.993163         1.000522
