19
Iteration:  2660
 C        -0.049450        -0.265464        -0.252045
 C         1.402587         0.093721         0.095300
 C         2.055418        -0.457466         1.448496
 C         3.589842        -0.317982         0.987418
 C         3.230462         0.336886        -0.331385
 C         3.705231         1.329082        -1.383376
 O         2.385151         2.120192        -1.228227
 C         2.188850         1.432660         0.040620
 O         2.274465        -0.559925        -0.846674
 H        -0.124325        -0.280551        -1.349630
 H        -0.351652        -1.331495        -0.019209
 H        -0.537298         0.593375         0.137049
 H         1.746053         0.237829         2.288848
 H         2.041277        -1.593528         1.592781
 H         4.288534         0.233455         1.746205
 H         3.893341        -1.394678         0.910552
 H         4.605792         1.824369        -1.306758
 H         3.647389         0.890387        -2.413404
 H         2.302542         2.150840         0.851398
