19
Iteration:  4870charge 0 multiplicity 1
 C        -0.080514        -0.228555        -0.231948
 C         1.376349         0.252624         0.177225
 C         1.877335         0.161985         1.655088
 C         3.476214         0.201752         1.436386
 C         3.282069         0.437069        -0.158004
 C         3.884066         0.672291        -1.484812
 O         2.511336         1.432930        -1.909332
 C         2.115946         1.461651        -0.416225
 O         2.354913        -0.584777        -0.469673
 H        -0.196882        -1.289216        -0.410934
 H        -0.778597         0.144862         0.611275
 H        -0.495239         0.371862        -1.112596
 H         1.480774         0.859148         2.363975
 H         1.726588        -0.836059         1.870956
 H         4.106591         0.997351         1.834987
 H         4.012704        -0.796354         1.617434
 H         4.681368         1.325939        -1.826536
 H         4.018115        -0.285172        -2.031614
 H         1.957913         2.520474        -0.092858
