19
Iteration:  4143
 C        -0.189802        -0.100393        -0.099477
 C         1.321913         0.154615         0.131099
 C         1.840292         0.206372         1.640474
 C         3.493034         0.355178         1.387238
 C         3.288875         0.328551        -0.219758
 C         3.897749         0.929574        -1.454182
 O         2.626113         1.426854        -1.861928
 C         2.112908         1.276209        -0.434447
 O         2.376662        -0.859777        -0.557852
 H        -0.744852        -0.525903         0.753268
 H        -0.661376         0.975081        -0.352188
 H        -0.335068        -0.689996        -1.040979
 H         1.316352         1.067140         2.274553
 H         1.761376        -0.805525         2.185774
 H         4.024759         1.345766         1.696713
 H         4.106962        -0.487682         1.839433
 H         4.510561         1.759987        -1.243403
 H         4.299129         0.252768        -2.230239
 H         2.052353         2.303424        -0.092707
