19
Iteration:  4029charge 0 multiplicity 1
 C        -0.119843        -0.236501        -0.238567
 C         1.303917         0.187055         0.162735
 C         1.831973         0.302084         1.677207
 C         3.504314         0.358174         1.275538
 C         3.267927         0.333588        -0.125631
 C         3.822281         0.827314        -1.533473
 O         2.622939         1.455256        -1.829533
 C         2.200271         1.322499        -0.441095
 O         2.343789        -0.802231        -0.416500
 H        -0.146748        -1.293460        -0.640198
 H        -0.858457        -0.113125         0.500293
 H        -0.423212         0.444643        -1.050555
 H         1.497658         1.343272         1.965130
 H         1.425884        -0.433066         2.368539
 H         3.950401         1.205369         1.703346
 H         3.986791        -0.501550         1.680861
 H         4.635615         1.531596        -1.387881
 H         4.054782        -0.043796        -2.091283
 H         2.233064         2.356907         0.060200
