19
Iteration:  1813charge 0 multiplicity 1
 C        -0.001226        -0.280325        -0.194855
 C         1.429426         0.113205         0.157872
 C         2.013066        -0.578862         1.358168
 C         3.489096        -0.433273         1.034566
 C         3.329240         0.412558        -0.223503
 C         3.705112         1.416354        -1.506649
 O         2.421176         2.125312        -1.242042
 C         2.116664         1.406701         0.005676
 O         2.306651        -0.457668        -0.867849
 H        -0.159826        -1.303717         0.150193
 H        -0.817913         0.195857         0.390836
 H        -0.111112        -0.132076        -1.255793
 H         1.927095        -0.099365         2.406023
 H         1.762775        -1.685619         1.532029
 H         4.138413        -0.062463         1.823999
 H         3.936260        -1.359514         0.751290
 H         4.436554         2.220927        -1.544649
 H         3.644450         0.888873        -2.475811
 H         2.167494         2.095632         0.902351
