19
Iteration:  2169
 C        -0.114373        -0.083635        -0.043763
 C         1.378081         0.030842         0.111686
 C         2.068919        -0.678037         1.363249
 C         3.584761        -0.354034         1.046477
 C         3.277851         0.448397        -0.310910
 C         3.765351         1.446167        -1.281308
 O         2.379459         1.985608        -1.387031
 C         2.103337         1.388424        -0.046537
 O         2.368151        -0.519233        -0.935189
 H        -0.565386        -0.992804         0.363425
 H        -0.677023         0.748767         0.366274
 H        -0.095984         0.025899        -1.102207
 H         1.870154        -0.216687         2.420031
 H         1.718461        -1.730645         1.193788
 H         3.862062         0.323815         1.935188
 H         4.158169        -1.328232         1.009747
 H         4.432910         2.254938        -1.044790
 H         3.894378         0.977755        -2.255977
 H         2.220375         2.201274         0.691360
