19
Iteration:  1605charge 0 multiplicity 1
 C        -0.097677        -0.146025        -0.063144
 C         1.365831         0.121562         0.156776
 C         2.020494        -0.730585         1.314368
 C         3.595539        -0.389976         0.990815
 C         3.306771         0.470213        -0.238908
 C         3.733803         1.496252        -1.344105
 O         2.415666         1.937419        -1.380702
 C         2.151743         1.409707        -0.012443
 O         2.319854        -0.427259        -0.914106
 H        -0.278401        -1.136327         0.436206
 H        -0.933432         0.336198         0.447462
 H        -0.301493        -0.173648        -1.133235
 H         1.777200        -0.536838         2.387942
 H         1.668422        -1.736685         1.179516
 H         4.129844         0.263699         1.821058
 H         4.270047        -1.321034         0.830654
 H         4.430073         2.237720        -0.797114
 H         4.015651         0.975714        -2.237314
 H         2.082247         2.266728         0.629988
