19
Iteration:   405charge 0 multiplicity 1
 C        -0.023115        -0.273080        -0.115370
 C         1.400511         0.103538         0.074314
 C         2.012202        -0.683147         1.345739
 C         3.584788        -0.378836         1.015438
 C         3.299961         0.457755        -0.276522
 C         3.726578         1.384354        -1.336916
 O         2.454612         2.079034        -1.410567
 C         2.147204         1.442656         0.008924
 O         2.233155        -0.405874        -0.796158
 H        -0.308079        -0.926544        -0.957713
 H        -0.543408        -0.717078         0.730174
 H        -0.756053         0.514195        -0.389381
 H         1.687219        -0.505812         2.399391
 H         1.784525        -1.771935         1.178770
 H         4.085960         0.136866         1.957771
 H         4.222595        -1.287682         0.636262
 H         4.531808         2.020057        -0.871547
 H         4.023128         1.026591        -2.357229
 H         2.036944         2.219479         0.886154
