19
Iteration:   468charge 0 multiplicity 1
 C        -0.083701        -0.123445        -0.170903
 C         1.403980         0.030243         0.131734
 C         2.078167        -0.540208         1.390182
 C         3.518597        -0.364879         0.997638
 C         3.312226         0.357048        -0.385650
 C         3.687637         1.481082        -1.338766
 O         2.386060         2.207454        -1.185272
 C         2.159226         1.269682        -0.062899
 O         2.342993        -0.674844        -0.884587
 H         0.116696        -0.914378        -0.811007
 H        -0.638030        -0.318293         0.718460
 H        -0.430039         0.773348        -0.658062
 H         1.740223         0.129270         2.195111
 H         1.799570        -1.553594         1.609040
 H         3.991659         0.255136         1.797320
 H         3.956192        -1.236534         0.692085
 H         4.596317         2.095633        -1.081457
 H         3.788393         1.142769        -2.420407
 H         2.046251         1.895113         0.837371
