19
Iteration:  1708
 C        -0.061434        -0.270105        -0.181810
 C         1.418402         0.026568         0.099738
 C         2.098029        -0.609247         1.444007
 C         3.578920        -0.397933         1.020790
 C         3.299169         0.491790        -0.214082
 C         3.685495         1.323263        -1.406311
 O         2.395054         2.036318        -1.334211
 C         2.131543         1.415506         0.065515
 O         2.294973        -0.333309        -0.919960
 H        -0.352452        -1.226487        -0.654047
 H        -0.721799        -0.014347         0.714782
 H        -0.499924         0.524424        -0.885693
 H         1.702118        -0.013085         2.196684
 H         1.980855        -1.679877         1.602158
 H         4.132503         0.002085         1.896627
 H         3.945726        -1.400806         0.524038
 H         4.537136         1.967028        -1.223787
 H         3.801052         0.713076        -2.344302
 H         2.179804         2.236941         0.801878
