19
Iteration:  2118charge 0 multiplicity 1
 C        -0.076641        -0.207558        -0.164992
 C         1.378647         0.031744         0.120057
 C         2.063213        -0.483380         1.441009
 C         3.548709        -0.296032         1.052078
 C         3.251106         0.363084        -0.356346
 C         3.742615         1.290336        -1.415574
 O         2.445653         2.099067        -1.234326
 C         2.188257         1.357356         0.029563
 O         2.268396        -0.483933        -0.954912
 H         0.033580        -1.247806        -0.570090
 H        -0.626891        -0.438097         0.753875
 H        -0.478585         0.470898        -0.920369
 H         1.834189         0.096620         2.284508
 H         1.741804        -1.516625         1.632447
 H         4.150343         0.290438         1.808982
 H         4.059099        -1.238216         0.978833
 H         4.443700         2.125099        -1.201098
 H         3.832992         0.956826        -2.465220
 H         1.979545         2.102527         0.750133
