19
Iteration:  4526charge 0 multiplicity 1
 C        -0.146524        -0.149788        -0.146435
 C         1.363862         0.208075         0.150091
 C         1.826867         0.158219         1.646998
 C         3.413287         0.266578         1.418982
 C         3.298800         0.451849        -0.141466
 C         3.946508         0.837700        -1.565279
 O         2.507222         1.293795        -1.858673
 C         2.173061         1.361517        -0.464009
 O         2.411754        -0.651137        -0.513709
 H        -0.358222        -1.233440         0.131746
 H        -0.635424         0.495505         0.618402
 H        -0.490544         0.131858        -1.201910
 H         1.687713         0.961683         2.301946
 H         1.455505        -0.830912         2.061813
 H         3.871784         1.162582         2.029310
 H         3.793293        -0.733635         1.652046
 H         4.600056         1.607675        -1.488991
 H         4.214108         0.129081        -2.341146
 H         2.200690         2.495061        -0.104941
