19
Iteration:  2037
 C        -0.109046        -0.206134        -0.068814
 C         1.349118         0.104891         0.132892
 C         2.043734        -0.660197         1.306929
 C         3.575266        -0.310928         1.089437
 C         3.264786         0.424267        -0.232632
 C         3.822194         1.363097        -1.351311
 O         2.422765         1.944045        -1.370673
 C         2.161406         1.412097        -0.021514
 O         2.276448        -0.412926        -0.906701
 H        -0.106314        -1.230509        -0.358813
 H        -0.612627         0.114580         0.813675
 H        -0.623506         0.318253        -0.850194
 H         1.575874        -0.420655         2.351810
 H         1.737776        -1.706138         1.052919
 H         4.062467         0.512887         1.746098
 H         4.348957        -1.141449         0.824232
 H         4.509039         2.260118        -1.167835
 H         3.992446         1.130029        -2.416091
 H         2.183503         2.245667         0.677429
