19
Iteration:  2757
 C        -0.156711        -0.154097        -0.106593
 C         1.325098        -0.017519         0.083321
 C         2.070934        -0.512142         1.429890
 C         3.631925        -0.221254         1.047867
 C         3.212788         0.360702        -0.374759
 C         3.779543         1.367650        -1.287343
 O         2.512967         2.012415        -1.316621
 C         2.043837         1.365878        -0.067401
 O         2.319211        -0.562126        -0.917151
 H        -0.652505         0.815926         0.071421
 H        -0.307571        -0.559330        -1.169352
 H        -0.461456        -0.796130         0.695235
 H         1.728820         0.166725         2.247991
 H         1.864165        -1.599854         1.543548
 H         4.116522         0.606527         1.698971
 H         4.274197        -1.143887         1.103632
 H         4.714943         2.056541        -1.076044
 H         3.992205         0.987241        -2.349634
 H         2.071436         2.091774         0.764495
