19
Iteration:  3078
 C        -0.178856        -0.178279        -0.272613
 C         1.358663         0.037195         0.124134
 C         2.058288        -0.185673         1.561576
 C         3.544718        -0.170158         1.184989
 C         3.349205         0.304852        -0.206499
 C         3.775304         1.226456        -1.545241
 O         2.439428         2.010440        -1.459093
 C         2.154207         1.343918        -0.146325
 O         2.322394        -0.692146        -0.719493
 H        -0.807424        -0.535517         0.596625
 H        -0.417151         0.784225        -0.749403
 H        -0.098907        -1.032044        -1.026767
 H         1.654118         0.638741         2.244867
 H         1.612645        -1.169688         1.950975
 H         4.054061         0.567681         1.890154
 H         4.072169        -1.190991         1.242683
 H         4.524298         1.945476        -1.599495
 H         3.884702         0.426634        -2.274889
 H         2.142586         2.032965         0.676961
