19
Iteration:  1430
 C        -0.078313        -0.113444        -0.191672
 C         1.392194        -0.014908         0.042299
 C         2.120180        -0.599803         1.449973
 C         3.589488        -0.310634         1.008002
 C         3.235327         0.348469        -0.382101
 C         3.746481         1.452869        -1.362688
 O         2.390710         2.049833        -1.118165
 C         2.152947         1.292765         0.007148
 O         2.300960        -0.504083        -0.994585
 H        -0.584439        -1.069894         0.162291
 H        -0.608423         0.655083         0.424110
 H        -0.555086         0.030527        -1.191885
 H         1.685421         0.096883         2.132289
 H         1.816081        -1.563515         1.767561
 H         4.108896         0.540112         1.616785
 H         4.234089        -1.203360         1.050716
 H         4.615186         1.926175        -0.944680
 H         3.840234         1.308750        -2.396503
 H         2.029505         1.985091         0.823910
