19
Iteration:   414
 C        -0.075384        -0.280236        -0.156563
 C         1.365135         0.093113         0.171902
 C         2.081308        -0.655408         1.406846
 C         3.566845        -0.366485         1.035990
 C         3.225705         0.470336        -0.253298
 C         3.761113         1.361885        -1.353556
 O         2.454972         2.081195        -1.352991
 C         2.157538         1.459619         0.028597
 O         2.240459        -0.461864        -0.951588
 H        -0.048371        -0.906405        -1.020884
 H        -0.582781        -0.760128         0.656009
 H        -0.502880         0.686774        -0.389865
 H         1.662872        -0.400955         2.394345
 H         1.849742        -1.661744         1.137124
 H         4.225669         0.200211         1.792062
 H         4.220523        -1.185838         0.794907
 H         4.564778         2.104950        -1.034086
 H         3.954065         0.859124        -2.355985
 H         2.084313         2.274082         0.834368
