19
Iteration:  3994
 C        -0.082163        -0.125982        -0.075495
 C         1.319672         0.228678         0.091294
 C         1.802091         0.059446         1.621233
 C         3.384579         0.328187         1.435142
 C         3.342436         0.502300        -0.137257
 C         3.845174         0.826521        -1.478703
 O         2.652952         1.261208        -1.911905
 C         2.166119         1.440345        -0.554527
 O         2.363274        -0.700777        -0.453986
 H        -0.203856        -1.157668        -0.380959
 H        -0.480793        -0.073064         0.920906
 H        -0.630997         0.485148        -0.755085
 H         1.439305         0.805175         2.265895
 H         1.347212        -0.948349         1.939140
 H         3.730451         1.277043         1.894738
 H         4.018321        -0.466180         1.716433
 H         4.608256         1.615165        -1.707557
 H         4.133946        -0.097126        -2.106904
 H         2.000657         2.556893        -0.264800
