19
Iteration:  1235
 C        -0.119654        -0.194437        -0.251915
 C         1.365494         0.073741         0.031184
 C         2.157663        -0.546903         1.382518
 C         3.694613        -0.417198         0.987168
 C         3.243937         0.390345        -0.308608
 C         3.721061         1.387849        -1.327415
 O         2.364322         2.134882        -1.130126
 C         2.127131         1.373242         0.024807
 O         2.275031        -0.563043        -0.947831
 H        -0.562425        -1.154028        -0.037155
 H        -0.735695         0.509852         0.265757
 H        -0.307399         0.042583        -1.289910
 H         1.943738         0.198302         2.249717
 H         1.835987        -1.509147         1.696492
 H         4.137668         0.382508         1.535773
 H         4.165765        -1.321285         1.067033
 H         4.517616         2.098145        -0.874302
 H         3.916427         0.964807        -2.297393
 H         2.119611         1.945057         0.972157
