19
Iteration:  4615
 C        -0.027082        -0.254239        -0.136483
 C         1.347216         0.182483         0.026358
 C         1.876335         0.358393         1.600194
 C         3.372565         0.283299         1.379367
 C         3.362949         0.269208        -0.180723
 C         3.808241         0.781990        -1.558741
 O         2.632485         1.579846        -1.821762
 C         2.170504         1.379800        -0.454196
 O         2.278221        -0.789093        -0.382223
 H        -0.097379        -1.393393        -0.432931
 H        -0.509470        -0.174663         0.848754
 H        -0.750752         0.350058        -0.746620
 H         1.597243         1.152167         2.222176
 H         1.433674        -0.623560         2.003798
 H         4.107411         1.159530         1.660751
 H         3.808084        -0.671418         1.799281
 H         4.735852         1.218341        -1.535265
 H         3.771222         0.016286        -2.308441
 H         1.958856         2.388760         0.132304
