19
Iteration:  4239charge 0 multiplicity 1
 C        -0.188216        -0.118917        -0.128761
 C         1.326838         0.186705         0.094716
 C         1.879112         0.153347         1.571568
 C         3.372951         0.374133         1.328019
 C         3.271102         0.381940        -0.155499
 C         3.965270         0.817624        -1.502857
 O         2.574948         1.402769        -1.826542
 C         2.205200         1.297942        -0.442789
 O         2.377071        -0.763310        -0.457588
 H        -0.293619        -1.115519        -0.477990
 H        -0.680276         0.077365         0.867717
 H        -0.653698         0.601772        -0.802230
 H         1.561399         1.007347         2.216503
 H         1.630683        -0.747834         2.037057
 H         3.678932         1.225224         1.900907
 H         4.001971        -0.428716         1.801834
 H         4.633349         1.755028        -1.527186
 H         4.286584        -0.005052        -2.173792
 H         2.168723         2.359666         0.017122
