19
Iteration:  4185charge 0 multiplicity 1
 C        -0.127249        -0.264171        -0.237467
 C         1.362665         0.211507         0.176075
 C         1.796376         0.291092         1.650703
 C         3.511634         0.222400         1.311534
 C         3.277127         0.400962        -0.144428
 C         3.875256         0.803473        -1.598797
 O         2.596266         1.481845        -1.846295
 C         2.156342         1.415705        -0.395837
 O         2.347722        -0.754410        -0.375522
 H        -0.252238        -1.218369         0.232023
 H        -0.922972         0.486475         0.101886
 H         0.061595        -0.333095        -1.310435
 H         1.440697         1.195834         2.271661
 H         1.435228        -0.616013         2.127893
 H         4.101829         0.948295         1.871267
 H         3.609303        -0.882172         1.508207
 H         4.747271         1.473801        -1.703534
 H         3.984133        -0.054477        -2.252962
 H         2.019629         2.473188         0.055980
