19
Iteration:  2193charge 0 multiplicity 1
 C        -0.122005        -0.077677        -0.091597
 C         1.398174         0.000702        -0.067441
 C         2.063485        -0.516211         1.419798
 C         3.594678        -0.293323         1.019162
 C         3.370969         0.413401        -0.357414
 C         3.744869         1.430439        -1.310416
 O         2.366347         1.969973        -1.223893
 C         2.119480         1.276241         0.018870
 O         2.299368        -0.566530        -0.966237
 H        -0.510828        -0.862633         0.537028
 H        -0.565994         0.873380         0.146627
 H        -0.326103        -0.194895        -1.097731
 H         1.735746         0.120527         2.284491
 H         1.870772        -1.620913         1.551253
 H         4.151245         0.430683         1.787409
 H         3.979863        -1.301616         1.034899
 H         4.428170         2.099020        -0.740715
 H         4.009218         1.360381        -2.377516
 H         2.086167         1.936662         0.832140
