19
Iteration:   367
 C        -0.125105        -0.165144        -0.089051
 C         1.384849        -0.075428         0.011690
 C         2.056074        -0.557463         1.400243
 C         3.573246        -0.281238         1.006496
 C         3.304449         0.422522        -0.262512
 C         3.774533         1.439696        -1.254411
 O         2.416982         2.021162        -1.282729
 C         2.093867         1.278223         0.015213
 O         2.305964        -0.434479        -1.074076
 H        -0.414224        -1.139815        -0.512606
 H        -0.452129        -0.122381         0.971306
 H        -0.511277         0.693264        -0.622539
 H         1.747364         0.079774         2.226545
 H         1.854666        -1.600415         1.666410
 H         4.206804         0.191279         1.699875
 H         4.079649        -1.260846         0.986248
 H         4.506874         2.155740        -0.762723
 H         4.101186         1.043133        -2.233997
 H         2.114693         1.946638         0.841099
