19
Iteration:  1769
 C        -0.156485        -0.148865        -0.103675
 C         1.339039        -0.022633         0.077877
 C         2.165240        -0.576662         1.465361
 C         3.624042        -0.238127         0.982208
 C         3.250136         0.397429        -0.389064
 C         3.834552         1.487154        -1.282561
 O         2.462970         2.097911        -1.214621
 C         2.081217         1.226492        -0.027795
 O         2.212060        -0.589059        -1.052030
 H        -0.437880        -1.105770         0.311407
 H        -0.772558         0.555053         0.452259
 H        -0.168050         0.005328        -1.143545
 H         1.759837        -0.060361         2.436763
 H         1.828364        -1.677591         1.573256
 H         3.959262         0.581833         1.644899
 H         4.367210        -0.998028         1.088145
 H         4.640857         2.038820        -0.753567
 H         4.083500         1.131604        -2.288398
 H         1.830105         1.992804         0.762294
