19
Iteration:  3014
 C        -0.171189        -0.239063        -0.007426
 C         1.332903         0.114917         0.126900
 C         1.926544        -0.462655         1.440650
 C         3.513381        -0.133457         1.118159
 C         3.273029         0.420420        -0.289957
 C         3.912599         1.239668        -1.350987
 O         2.531410         1.812241        -1.574062
 C         2.160221         1.459917        -0.184585
 O         2.310758        -0.498159        -0.760041
 H        -0.798927         0.665310         0.098932
 H        -0.403599        -0.619757        -0.961712
 H        -0.634064        -0.933888         0.712253
 H         1.500550        -0.165220         2.496924
 H         1.919517        -1.564485         1.582231
 H         4.046180         0.655387         1.730948
 H         4.212480        -1.057634         1.056492
 H         4.516206         2.267429        -1.310861
 H         4.225441         0.693345        -2.268973
 H         2.120881         2.338419         0.464078
