19
Iteration:   590charge 0 multiplicity 1
 C        -0.118037        -0.233372        -0.236051
 C         1.366435        -0.000448         0.110834
 C         2.114480        -0.565765         1.467290
 C         3.661695        -0.408783         1.001000
 C         3.220670         0.430685        -0.327769
 C         3.749758         1.407151        -1.332740
 O         2.377765         2.126153        -1.237424
 C         2.166640         1.348911         0.075811
 O         2.251295        -0.460927        -0.997180
 H        -0.396401        -1.217627         0.129931
 H        -0.651758         0.599385         0.243017
 H        -0.184335        -0.164000        -1.331436
 H         1.948748         0.080715         2.334571
 H         1.661687        -1.571526         1.790067
 H         4.331549         0.246066         1.616224
 H         4.181729        -1.381621         0.885017
 H         4.606469         2.122304        -1.114467
 H         3.804751         0.961007        -2.353144
 H         2.233103         2.051430         0.945766
