19
Iteration:  3837charge 0 multiplicity 1
 C        -0.133982        -0.040492        -0.084234
 C         1.339854         0.150753         0.061197
 C         1.846987         0.166679         1.611730
 C         3.396225         0.298821         1.317887
 C         3.314800         0.298364        -0.226752
 C         3.892192         0.918277        -1.406820
 O         2.621471         1.447462        -1.891415
 C         2.112605         1.249501        -0.431771
 O         2.379033        -0.803625        -0.475234
 H        -0.390061         0.347921         0.873215
 H        -0.538374         0.525645        -0.920489
 H        -0.316024        -1.121644        -0.219351
 H         1.424270         1.004923         2.178022
 H         1.470635        -0.748379         2.023347
 H         3.650272         1.320000         1.715954
 H         4.106007        -0.461789         1.820814
 H         4.491860         1.806506        -1.058984
 H         4.358332         0.317761        -2.251689
 H         2.065074         2.275013         0.093333
