19
Iteration:  4820
 C        -0.158597        -0.028266        -0.062204
 C         1.354307         0.149798         0.136954
 C         1.840343         0.204034         1.684584
 C         3.368793         0.290242         1.332846
 C         3.303280         0.260940        -0.224107
 C         3.880559         0.906985        -1.473673
 O         2.611335         1.498327        -1.861986
 C         2.185484         1.223166        -0.546094
 O         2.407008        -0.834376        -0.467052
 H        -0.405617        -1.118416        -0.168923
 H        -0.709567         0.437625         0.693286
 H        -0.517954         0.412439        -0.998784
 H         1.337134         1.088717         2.237278
 H         1.550585        -0.850716         2.147379
 H         3.813079         1.246662         1.709332
 H         4.048686        -0.437150         1.723722
 H         4.534604         1.805274        -1.203926
 H         4.271619         0.550698        -2.442567
 H         2.050874         2.228662        -0.123892
