19
Iteration:  2279charge 0 multiplicity 1
 C        -0.069675        -0.215239        -0.096368
 C         1.373632         0.058507         0.069003
 C         2.043642        -0.573596         1.375323
 C         3.514625        -0.304682         1.001593
 C         3.287165         0.423100        -0.268395
 C         3.776853         1.410473        -1.350629
 O         2.457451         2.001363        -1.278150
 C         2.123937         1.412879        -0.000518
 O         2.299127        -0.494057        -0.977644
 H        -0.397610        -1.195350        -0.531868
 H        -0.608583        -0.254272         0.884547
 H        -0.586856         0.551454        -0.705599
 H         1.756564        -0.056919         2.393111
 H         1.850421        -1.695153         1.465142
 H         4.087388         0.253872         1.818115
 H         3.969420        -1.266830         1.084050
 H         4.556010         2.107401        -1.129021
 H         3.917195         0.895159        -2.298167
 H         2.295637         2.116271         0.839611
