19
Iteration:  2943
 C        -0.017148        -0.168853        -0.304911
 C         1.418180         0.111577         0.128655
 C         2.035918        -0.275896         1.580871
 C         3.582629        -0.251493         1.118508
 C         3.286225         0.344568        -0.264792
 C         3.700151         1.246464        -1.423304
 O         2.430231         1.994667        -1.395234
 C         2.131626         1.368823        -0.089047
 O         2.268187        -0.649984        -0.784322
 H        -0.005100        -0.402411        -1.376183
 H        -0.536409        -1.036149         0.225849
 H        -0.868351         0.539242        -0.132273
 H         1.604820         0.262510         2.384759
 H         1.807614        -1.369681         1.703049
 H         4.360807         0.392967         1.550018
 H         3.970362        -1.223752         1.087403
 H         4.531254         1.862329        -1.238252
 H         3.726297         0.923206        -2.456813
 H         2.129992         2.137525         0.671901
