19
Iteration:   719charge 0 multiplicity 1
 C        -0.128199        -0.304241        -0.172684
 C         1.326332         0.101167         0.111010
 C         2.105002        -0.511833         1.352887
 C         3.615671        -0.407124         1.006033
 C         3.312987         0.463708        -0.195680
 C         3.699578         1.278017        -1.361325
 O         2.445586         1.985085        -1.240626
 C         2.117247         1.412920         0.139954
 O         2.313366        -0.347111        -1.056975
 H        -0.265328        -1.210679        -0.838503
 H        -0.798981        -0.512786         0.756101
 H        -0.565374         0.572072        -0.770191
 H         2.072334         0.154220         2.213932
 H         1.794053        -1.531382         1.673388
 H         4.121404         0.119107         1.834896
 H         4.121013        -1.269665         0.609039
 H         4.445627         2.082836        -1.197870
 H         3.796376         0.902585        -2.415453
 H         2.099377         2.206114         0.828568
