19
Iteration:   899charge 0 multiplicity 1
 C        -0.074773        -0.152292        -0.040089
 C         1.393588         0.034059        -0.006976
 C         2.028492        -0.604783         1.297865
 C         3.588665        -0.335022         0.987244
 C         3.245946         0.347170        -0.394696
 C         3.709749         1.541374        -1.301383
 O         2.470639         2.166766        -1.258261
 C         2.118572         1.338575        -0.017532
 O         2.320831        -0.671010        -0.870431
 H        -0.366825        -1.240539        -0.226437
 H        -0.461014         0.155118         0.959176
 H        -0.665562         0.490820        -0.743586
 H         1.645840        -0.045392         2.252783
 H         1.746907        -1.590088         1.499200
 H         4.125016         0.283347         1.781957
 H         4.082771        -1.298373         0.929636
 H         4.573224         2.072319        -0.740641
 H         4.088264         1.366565        -2.297562
 H         1.993036         1.950007         0.837522
