19
Iteration:  4645
 C        -0.090460        -0.193171        -0.111064
 C         1.267100         0.189283         0.199287
 C         1.888964         0.189283         1.642352
 C         3.390827         0.228135         1.317099
 C         3.358433         0.504276        -0.163492
 C         3.963042         0.758125        -1.489352
 O         2.578405         1.385595        -1.863881
 C         2.144100         1.375641        -0.463929
 O         2.289920        -0.614712        -0.495233
 H        -0.094061        -1.342675        -0.230338
 H        -0.832452        -0.070204         0.677920
 H        -0.427929         0.252140        -1.109585
 H         1.670310         1.150270         2.122224
 H         1.526728        -0.749200         2.177785
 H         3.922456         1.117344         1.777694
 H         3.883073        -0.737878         1.342437
 H         4.925542         1.395308        -1.619637
 H         4.045559        -0.222688        -2.058825
 H         1.973866         2.341675        -0.013553
