19
Iteration:  3570charge 0 multiplicity 1
 C        -0.127101        -0.124239        -0.134662
 C         1.343387         0.180521         0.174204
 C         1.861201        -0.047872         1.565278
 C         3.485682         0.107269         1.297332
 C         3.293801         0.439382        -0.166172
 C         3.905197         0.964048        -1.448933
 O         2.482730         1.498625        -1.802503
 C         2.179631         1.409777        -0.399725
 O         2.376758        -0.664013        -0.563263
 H        -0.660335         0.450470         0.673965
 H        -0.443825         0.093912        -1.161722
 H        -0.324258        -1.162661         0.013265
 H         1.529531         0.505708         2.541738
 H         1.704703        -1.145425         1.694892
 H         3.882562         0.964139         1.838875
 H         3.904232        -0.871953         1.507081
 H         4.497048         1.886145        -1.288070
 H         4.428567         0.334971        -2.063371
 H         1.979334         2.529116        -0.065659
