19
Iteration:  3708
 C        -0.134923        -0.061660        -0.116990
 C         1.312877         0.119834         0.147475
 C         1.873787         0.078334         1.588809
 C         3.402911         0.231854         1.304517
 C         3.316594         0.324214        -0.237535
 C         3.961228         0.942788        -1.433948
 O         2.508938         1.537341        -1.832690
 C         2.191435         1.340094        -0.424951
 O         2.370797        -0.817479        -0.493507
 H        -0.340874        -0.490617        -1.076457
 H        -0.523744        -0.841196         0.608916
 H        -0.510751         0.988064        -0.024613
 H         1.497008         0.875967         2.278871
 H         1.551518        -0.985361         2.077813
 H         3.815431         1.128692         1.771337
 H         4.002481        -0.616058         1.683151
 H         4.441846         1.803828        -1.084403
 H         4.579051         0.670664        -2.372769
 H         1.877338         2.316960        -0.084642
