19
Iteration:  2325
 C        -0.100288        -0.069099        -0.104420
 C         1.390213         0.016191         0.071682
 C         2.107019        -0.495386         1.422078
 C         3.540603        -0.277164         0.965925
 C         3.289307         0.399689        -0.309024
 C         3.777900         1.447543        -1.259047
 O         2.383867         1.959525        -1.294815
 C         2.156910         1.270636        -0.022135
 O         2.286199        -0.591305        -0.956371
 H        -0.329279        -0.675575        -1.009242
 H        -0.753968        -0.619269         0.603137
 H        -0.498920         0.866966        -0.353059
 H         1.698540         0.040540         2.400444
 H         1.805445        -1.607314         1.517069
 H         4.271085         0.389662         1.610327
 H         4.287300        -1.073935         0.761216
 H         4.356421         2.090326        -0.646831
 H         4.132293         1.250436        -2.271314
 H         1.915427         2.036733         0.717382
