19
Iteration:  3217charge 0 multiplicity 1
 C        -0.014672        -0.238733        -0.235187
 C         1.343988         0.123999         0.173441
 C         1.945795        -0.175524         1.572462
 C         3.502465        -0.079040         1.123746
 C         3.280047         0.419154        -0.228559
 C         3.774763         1.067161        -1.446624
 O         2.566875         1.826388        -1.641390
 C         2.090275         1.449741        -0.084352
 O         2.278665        -0.634138        -0.641082
 H        -0.272956         0.230011        -1.193029
 H         0.076823        -1.325611        -0.393995
 H        -0.771946         0.002600         0.585232
 H         1.624597         0.593013         2.201110
 H         1.798791        -1.307727         1.853334
 H         3.961296         0.560932         1.862410
 H         3.989901        -1.012812         1.123421
 H         4.736079         1.711185        -1.607681
 H         3.643374         0.302216        -2.350641
 H         2.160995         2.468859         0.436367
