19
Iteration:  2319
 C        -0.145849        -0.086948        -0.097546
 C         1.412250        -0.022798        -0.003363
 C         2.119569        -0.493712         1.444008
 C         3.560454        -0.265016         0.977161
 C         3.294386         0.375109        -0.362716
 C         3.736941         1.443497        -1.193815
 O         2.399443         1.969248        -1.301751
 C         2.133939         1.345139        -0.043180
 O         2.296704        -0.635794        -0.931540
 H        -0.242419        -0.568880        -1.076067
 H        -0.735374        -0.322444         0.818786
 H        -0.633280         0.956097        -0.323172
 H         1.887305        -0.107312         2.364844
 H         1.884653        -1.504071         1.521271
 H         4.020995         0.367470         1.654885
 H         4.195974        -1.123149         0.620347
 H         4.445625         2.224242        -0.683582
 H         4.219799         1.296649        -2.180894
 H         2.022574         1.997781         0.859052
