19
Iteration:  3517
 C        -0.172280        -0.176994        -0.208707
 C         1.366548         0.065590         0.094977
 C         1.961747         0.064509         1.592778
 C         3.491946         0.145812         1.260638
 C         3.188657         0.354561        -0.241678
 C         3.832494         0.958231        -1.522702
 O         2.613571         1.730590        -1.670426
 C         2.084206         1.327499        -0.302922
 O         2.354005        -0.746368        -0.519487
 H        -0.546508         0.679523        -0.742176
 H        -0.152419        -1.096845        -0.771529
 H        -0.607077        -0.422707         0.744757
 H         1.494548         0.928583         2.267949
 H         1.710805        -0.834919         2.085920
 H         4.088424         0.971268         1.740975
 H         3.937603        -0.881059         1.401652
 H         4.730467         1.594638        -1.305564
 H         4.118503         0.332865        -2.301675
 H         2.253411         2.198513         0.340523
