19
Iteration:  2181
 C        -0.095918        -0.065924        -0.112229
 C         1.398083        -0.014217         0.099306
 C         2.039952        -0.576192         1.329951
 C         3.580124        -0.315443         1.043952
 C         3.285288         0.343619        -0.250564
 C         3.727691         1.485135        -1.316172
 O         2.350437         1.979341        -1.321481
 C         2.185123         1.341388        -0.019769
 O         2.339853        -0.540607        -0.975474
 H        -0.531236        -0.867219         0.500931
 H        -0.391531         0.870344         0.337872
 H        -0.577768        -0.193405        -0.994152
 H         1.581585        -0.051681         2.251971
 H         1.833254        -1.661505         1.539130
 H         4.188490         0.393277         1.754039
 H         4.259828        -1.166399         0.862702
 H         4.406424         2.234359        -0.878483
 H         4.186835         1.134828        -2.251522
 H         2.099832         2.007328         0.820944
