19
Iteration:   168charge 0 multiplicity 1
 C        -0.054323        -0.279726        -0.266242
 C         1.324494         0.080647         0.177240
 C         2.122095        -0.688551         1.300475
 C         3.669248        -0.415366         0.942101
 C         3.308874         0.379848        -0.327201
 C         3.661209         1.371066        -1.366485
 O         2.409218         2.169648        -1.039586
 C         2.153253         1.429555         0.127868
 O         2.221384        -0.361865        -1.009790
 H        -0.295770        -0.205643        -1.345132
 H        -0.392892        -1.255236         0.117342
 H        -0.783501         0.447226         0.148447
 H         1.929053        -0.402894         2.369967
 H         1.877627        -1.740255         1.089583
 H         4.265357         0.245484         1.606017
 H         4.205277        -1.419003         0.786963
 H         4.610258         1.962916        -1.211493
 H         3.824634         1.032351        -2.385855
 H         1.994456         2.000724         1.062646
