19
Iteration:   631charge 0 multiplicity 1
 C        -0.042274        -0.172439        -0.103417
 C         1.410897         0.084682         0.090519
 C         2.012098        -0.700841         1.356180
 C         3.587204        -0.359781         0.983956
 C         3.301917         0.435410        -0.165370
 C         3.752066         1.380390        -1.314485
 O         2.328662         2.005730        -1.348152
 C         2.152075         1.455179         0.020856
 O         2.318631        -0.419786        -0.961917
 H        -0.134456        -1.258149        -0.507140
 H        -0.737366        -0.076827         0.817702
 H        -0.552400         0.569086        -0.830101
 H         1.712614        -0.139388         2.286610
 H         1.895599        -1.803563         1.338648
 H         4.151005         0.248884         1.762665
 H         4.107366        -1.227184         0.641726
 H         4.450243         2.135139        -1.186811
 H         3.988233         0.740015        -2.195034
 H         2.218193         2.078036         0.906029
