19
Iteration:   792
 C        -0.071220        -0.071461        -0.123197
 C         1.454209        -0.049044         0.004909
 C         2.138462        -0.546448         1.351465
 C         3.628730        -0.237465         1.025416
 C         3.184119         0.359013        -0.293646
 C         3.707059         1.405810        -1.260487
 O         2.434434         2.029152        -1.166807
 C         2.083591         1.286225         0.077796
 O         2.248240        -0.537179        -1.119518
 H        -0.409245        -0.886946         0.467686
 H        -0.623067         0.758475         0.211902
 H        -0.296417        -0.353255        -1.135892
 H         1.779154         0.059733         2.235466
 H         2.035649        -1.578555         1.427593
 H         4.054847         0.565047         1.679808
 H         4.159858        -1.133385         0.878754
 H         4.474759         2.095093        -0.872925
 H         3.884840         1.035574        -2.297851
 H         2.061327         1.909550         1.087443
