19
Iteration:  2931charge 0 multiplicity 1
 C        -0.053896        -0.239988        -0.294230
 C         1.334644         0.087567         0.141656
 C         2.033882        -0.289264         1.575326
 C         3.615592        -0.268956         1.074664
 C         3.281987         0.349852        -0.284692
 C         3.735724         1.210472        -1.445658
 O         2.437097         2.008383        -1.403879
 C         2.109951         1.439507        -0.071438
 O         2.290856        -0.564746        -0.777233
 H         0.011747        -0.742845        -1.279025
 H        -0.497047        -0.954394         0.476002
 H        -0.388927         0.798182        -0.369136
 H         1.901658         0.208253         2.495542
 H         1.659448        -1.305224         1.685569
 H         4.177544         0.235962         1.832120
 H         3.972107        -1.255154         0.921918
 H         4.499497         1.827207        -1.192626
 H         3.979698         0.548095        -2.257867
 H         1.886442         2.179758         0.731672
