19
Iteration:  2283charge 0 multiplicity 1
 C        -0.131999        -0.179880        -0.065498
 C         1.398507         0.037274         0.051958
 C         2.023184        -0.572937         1.398561
 C         3.542779        -0.280443         0.995880
 C         3.313071         0.400206        -0.282179
 C         3.784371         1.432585        -1.353320
 O         2.453608         2.013951        -1.284411
 C         2.105401         1.388405        -0.022623
 O         2.297937        -0.511859        -0.968675
 H        -0.263639        -1.131605        -0.562591
 H        -0.626125        -0.374720         0.860181
 H        -0.410040         0.628704        -0.701592
 H         1.827396        -0.080675         2.340734
 H         1.842175        -1.656861         1.434840
 H         4.016207         0.213208         1.888216
 H         4.003661        -1.292224         1.030509
 H         4.551048         2.132028        -0.971096
 H         3.996724         0.913599        -2.300589
 H         2.159196         2.022887         0.844480
