19
Iteration:  2455charge 0 multiplicity 1
 C        -0.146445        -0.123447        -0.050854
 C         1.357149         0.022223         0.140497
 C         1.989975        -0.538673         1.424015
 C         3.591972        -0.361088         1.016781
 C         3.298650         0.481347        -0.212648
 C         3.792317         1.412081        -1.323237
 O         2.446367         1.913241        -1.417848
 C         2.088315         1.391693        -0.115410
 O         2.346822        -0.496602        -0.921243
 H        -0.539142         0.858993        -0.382488
 H        -0.379743        -1.020072        -0.726585
 H        -0.547561        -0.473139         0.892252
 H         1.856558        -0.289869         2.504474
 H         2.000279        -1.678197         1.305013
 H         4.045933         0.322335         1.802378
 H         3.946441        -1.304857         0.797160
 H         4.483634         2.286322        -1.154380
 H         4.297723         1.040219        -2.277899
 H         2.026712         2.286882         0.605118
