19
Iteration:  4218
 C        -0.012465        -0.216859        -0.190060
 C         1.377796         0.245275         0.142745
 C         1.830791         0.161677         1.619371
 C         3.500556         0.321193         1.344515
 C         3.242633         0.423414        -0.135907
 C         3.847453         0.705334        -1.458049
 O         2.609132         1.361364        -1.843467
 C         2.122426         1.436516        -0.396783
 O         2.271317        -0.632492        -0.515038
 H         0.023903        -1.259258        -0.402896
 H        -0.880308        -0.023231         0.556191
 H        -0.394245         0.245170        -1.109703
 H         1.421645         0.948499         2.336255
 H         1.593412        -0.854710         1.947598
 H         4.089592         1.167259         1.763476
 H         4.031104        -0.547592         1.835487
 H         4.693133         1.427002        -1.517110
 H         3.942587        -0.141859        -2.144600
 H         2.032543         2.542050        -0.147844
