19
Iteration:  1086
 C        -0.037178        -0.174637        -0.159475
 C         1.383935         0.040637         0.070539
 C         2.106250        -0.521475         1.422640
 C         3.593039        -0.427784         0.994213
 C         3.338814         0.417045        -0.248009
 C         3.710915         1.376896        -1.322416
 O         2.423538         2.107939        -1.210041
 C         2.029917         1.323887         0.062540
 O         2.272963        -0.502048        -1.047505
 H        -0.330298        -1.249511        -0.413392
 H        -0.672890         0.201540         0.715750
 H        -0.293127         0.450404        -1.064537
 H         1.659850         0.069915         2.224296
 H         1.742777        -1.521907         1.558549
 H         4.276354         0.185198         1.646463
 H         4.201259        -1.388850         0.820842
 H         4.588100         2.135615        -1.132934
 H         3.853434         1.031243        -2.396122
 H         1.867956         2.084742         0.816110
