19
Iteration:   118charge 0 multiplicity 1
 C        -0.035939        -0.109116        -0.008397
 C         1.419982        -0.051626        -0.019126
 C         2.122778        -0.652804         1.237508
 C         3.604123        -0.507941         0.930541
 C         3.295472         0.414557        -0.322388
 C         3.672981         1.583910        -1.173374
 O         2.379720         2.198005        -1.167693
 C         2.055166         1.346662         0.025558
 O         2.319943        -0.530474        -1.025326
 H        -0.426707        -1.000631        -0.630035
 H        -0.457126        -0.350177         0.966553
 H        -0.607712         0.701623        -0.432880
 H         1.685497        -0.326343         2.153633
 H         1.757843        -1.771030         1.145483
 H         4.269354        -0.101139         1.643211
 H         4.042250        -1.439278         0.465486
 H         4.381590         2.160866        -0.554901
 H         4.119101         1.463372        -2.251165
 H         1.973390         1.812932         1.029324
