19
Iteration:   635charge 0 multiplicity 1
 C        -0.103062        -0.173598        -0.097548
 C         1.420405         0.050002         0.085618
 C         2.023580        -0.686525         1.380997
 C         3.586317        -0.344187         1.008704
 C         3.333878         0.443730        -0.206532
 C         3.739982         1.357327        -1.307317
 O         2.354246         1.996593        -1.310094
 C         2.140173         1.413626         0.002089
 O         2.312768        -0.391933        -1.003173
 H        -0.145166        -1.144316        -0.574821
 H        -0.662625        -0.102565         0.844393
 H        -0.500979         0.611993        -0.736429
 H         1.652237        -0.156387         2.244165
 H         1.913055        -1.837791         1.479546
 H         4.082363         0.233337         1.775324
 H         4.252752        -1.245011         0.736596
 H         4.470809         2.263269        -1.191176
 H         3.959156         0.795780        -2.219973
 H         2.154190         2.292141         0.753990
