19
Iteration:  4574
 C        -0.252409        -0.164638        -0.158940
 C         1.351963         0.131091         0.072831
 C         1.970885         0.257160         1.694401
 C         3.485516         0.339185         1.301590
 C         3.248767         0.340349        -0.172095
 C         3.902142         0.803710        -1.443254
 O         2.630859         1.447190        -1.860312
 C         2.132232         1.319863        -0.466970
 O         2.315216        -0.733913        -0.446694
 H        -0.428375        -1.128064        -0.598235
 H        -0.785117        -0.119720         0.776528
 H        -0.555915         0.551572        -0.871785
 H         1.536450         1.152689         2.173392
 H         1.896217        -0.698563         2.182474
 H         3.834947         1.268147         1.588266
 H         4.009109        -0.550606         1.662159
 H         4.711550         1.599609        -1.324658
 H         4.233255        -0.015782        -2.087884
 H         1.894794         2.285358        -0.029888
