19
Iteration:  1236
 C        -0.114756        -0.190250        -0.246709
 C         1.361748         0.071905         0.034467
 C         2.147993        -0.554550         1.386571
 C         3.695840        -0.413291         0.984535
 C         3.243600         0.401625        -0.309977
 C         3.713698         1.383979        -1.326165
 O         2.365685         2.137746        -1.130993
 C         2.131057         1.377933         0.018593
 O         2.279478        -0.566110        -0.949692
 H        -0.524915        -1.166781        -0.055833
 H        -0.765853         0.494629         0.240499
 H        -0.272578         0.040405        -1.282083
 H         1.968100         0.175353         2.270255
 H         1.820919        -1.514951         1.702324
 H         4.150008         0.358361         1.569726
 H         4.157360        -1.345172         1.071806
 H         4.520199         2.064551        -0.888770
 H         3.902223         0.960952        -2.322276
 H         2.115464         1.965000         0.983189
