19
Iteration:   836
 C        -0.071788        -0.297729        -0.186012
 C         1.292340         0.159922         0.151479
 C         2.076654        -0.652425         1.339604
 C         3.586612        -0.430668         0.954710
 C         3.325772         0.473348        -0.250355
 C         3.747777         1.438200        -1.408127
 O         2.398233         2.082609        -1.243275
 C         2.167256         1.492412         0.074966
 O         2.275858        -0.509008        -0.878045
 H        -0.368977        -1.113638         0.412714
 H        -0.734759         0.488572        -0.013403
 H         0.099160        -0.507995        -1.227045
 H         1.678357        -0.142898         2.281965
 H         1.919034        -1.696467         1.292883
 H         4.346252         0.002568         1.645711
 H         3.767492        -1.403954         0.594890
 H         4.630514         1.997583        -1.309779
 H         3.683681         0.786249        -2.282520
 H         2.241082         2.331502         0.930397
