19
Iteration:  4756charge 0 multiplicity 1
 C        -0.076045        -0.331725        -0.163209
 C         1.321572         0.284088         0.231017
 C         1.850443         0.160966         1.687467
 C         3.412850         0.153534         1.372912
 C         3.301759         0.414628        -0.151786
 C         3.890351         0.784626        -1.567119
 O         2.605113         1.480196        -1.931082
 C         2.241104         1.492445        -0.485656
 O         2.207651        -0.602256        -0.428940
 H        -0.455760        -1.033313         0.659287
 H        -0.747855         0.442210        -0.431292
 H         0.088329        -0.938788        -1.047550
 H         1.560597         0.921890         2.379917
 H         1.531193        -0.880034         1.911594
 H         3.979356         1.006606         1.829092
 H         3.968245        -0.749304         1.457098
 H         4.841251         1.447315        -1.421792
 H         4.245266        -0.091197        -2.160800
 H         2.225767         2.417666        -0.008339
