19
Iteration:   858charge 0 multiplicity 1
 C        -0.058240        -0.228994        -0.194533
 C         1.317660         0.002106         0.068740
 C         2.150637        -0.564530         1.434073
 C         3.623479        -0.419906         0.949307
 C         3.237300         0.385525        -0.272439
 C         3.697930         1.347266        -1.341519
 O         2.467409         2.036800        -1.262042
 C         2.060771         1.383895         0.080273
 O         2.255906        -0.319652        -0.962670
 H        -0.214638        -1.142745         0.329633
 H        -0.643947         0.516555         0.270489
 H        -0.140855        -0.366223        -1.258422
 H         1.887677         0.073275         2.359320
 H         1.770835        -1.543405         1.648608
 H         4.171175         0.310166         1.588522
 H         4.236929        -1.243916         0.667235
 H         4.433417         1.918397        -0.861557
 H         3.961212         1.188895        -2.381111
 H         2.151736         2.061015         1.036624
