19
Iteration:  2481
 C        -0.085806        -0.180875        -0.163320
 C         1.370479         0.115910         0.120298
 C         2.059465        -0.557051         1.359608
 C         3.616373        -0.314247         1.097453
 C         3.256340         0.451373        -0.187766
 C         3.762317         1.241491        -1.380333
 O         2.371357         1.972387        -1.394720
 C         2.143937         1.439979        -0.002409
 O         2.296467        -0.448830        -0.913256
 H        -0.550774         0.712610        -0.513070
 H        -0.117922        -0.975040        -0.841941
 H        -0.568444        -0.607470         0.760211
 H         1.969172        -0.167033         2.486576
 H         1.797333        -1.612595         1.395468
 H         3.990130         0.402340         1.820100
 H         4.234531        -1.298375         0.916616
 H         4.533168         1.947799        -1.161493
 H         3.952437         0.790678        -2.348121
 H         2.139772         2.181866         0.781136
