19
Iteration:  3116charge 0 multiplicity 1
 C        -0.052352        -0.132925        -0.200979
 C         1.363156         0.127435         0.208104
 C         2.012878        -0.366404         1.446310
 C         3.511896        -0.082616         1.195981
 C         3.282248         0.437883        -0.234864
 C         3.829896         1.091112        -1.383346
 O         2.389242         1.802199        -1.527904
 C         2.179812         1.399266        -0.167418
 O         2.295334        -0.556029        -0.764612
 H        -0.445516        -0.994742         0.273122
 H        -0.774509         0.630955         0.094572
 H        -0.104005        -0.232218        -1.248674
 H         1.699354         0.164897         2.351578
 H         1.880411        -1.432142         1.517172
 H         4.017107         0.735385         1.644443
 H         4.029737        -0.980085         1.377776
 H         4.663098         1.910338        -1.467407
 H         3.925857         0.303190        -2.157171
 H         2.169196         2.369496         0.423309
