19
Iteration:   248
 C        -0.141084        -0.206119        -0.068313
 C         1.381696        -0.010268         0.038565
 C         2.106362        -0.643543         1.400424
 C         3.624079        -0.367600         0.958873
 C         3.293469         0.388380        -0.359866
 C         3.808084         1.559577        -1.159697
 O         2.397081         2.157132        -1.213479
 C         2.102773         1.325526        -0.111165
 O         2.211017        -0.558670        -1.022665
 H        -0.425202         0.739314         0.376244
 H        -0.293294         0.021617        -1.107629
 H        -0.561729        -1.084943         0.320725
 H         1.762738        -0.271611         2.350460
 H         1.867535        -1.741226         1.260053
 H         4.337541         0.257709         1.483949
 H         4.193754        -1.340024         0.821390
 H         4.398245         2.003657        -0.347087
 H         4.248860         1.489461        -2.179905
 H         2.176133         1.906714         0.901446
