19
Iteration:  2270charge 0 multiplicity 1
 C        -0.053905        -0.279297        -0.158856
 C         1.361946         0.074743         0.105829
 C         2.052983        -0.550200         1.337975
 C         3.521124        -0.375279         1.068245
 C         3.236058         0.440572        -0.255380
 C         3.749535         1.328659        -1.358639
 O         2.443674         2.018354        -1.280544
 C         2.207821         1.447167         0.050990
 O         2.290882        -0.423535        -0.963908
 H        -0.231953        -1.324882        -0.414778
 H        -0.408352         0.019002         0.799820
 H        -0.637467         0.310504        -0.744263
 H         1.574371        -0.065712         2.258169
 H         1.761731        -1.652529         1.417421
 H         4.106900         0.446920         1.624788
 H         4.119148        -1.235536         0.809119
 H         4.548172         1.994834        -1.285039
 H         3.830191         0.854990        -2.333355
 H         2.223923         2.209383         0.791208
