19
Iteration:  1155charge 0 multiplicity 1
 C        -0.138480        -0.224637        -0.134986
 C         1.381287         0.038815         0.140043
 C         2.074128        -0.657704         1.321577
 C         3.573775        -0.321636         0.986766
 C         3.278025         0.497844        -0.266036
 C         3.809874         1.328237        -1.327532
 O         2.379375         2.041906        -1.272325
 C         2.136795         1.391229         0.062235
 O         2.306369        -0.365690        -1.003571
 H        -0.324664        -1.280342        -0.426672
 H        -0.681863         0.041935         0.820592
 H        -0.497652         0.437543        -0.959843
 H         2.022610        -0.255140         2.354359
 H         1.891217        -1.806683         1.401357
 H         3.927340         0.184171         1.890724
 H         4.126351        -1.277315         1.072523
 H         4.847442         1.864122        -1.233672
 H         3.831154         0.698771        -2.277012
 H         2.044800         2.065568         0.876339
