19
Iteration:  2321charge 0 multiplicity 1
 C        -0.128046        -0.079109        -0.095513
 C         1.408561        -0.011977         0.015317
 C         2.118804        -0.489584         1.440640
 C         3.547401        -0.271468         0.972717
 C         3.296062         0.387565        -0.350208
 C         3.747796         1.438983        -1.211328
 O         2.394157         1.963595        -1.297819
 C         2.148294         1.317079        -0.036152
 O         2.292326        -0.622386        -0.939963
 H        -0.260046        -0.605323        -1.094800
 H        -0.786960        -0.418627         0.774426
 H        -0.608909         0.924268        -0.339604
 H         1.815083        -0.076698         2.385773
 H         1.849778        -1.535399         1.519992
 H         4.102816         0.357224         1.622772
 H         4.211657        -1.025580         0.643815
 H         4.424447         2.197190        -0.661475
 H         4.186142         1.293056        -2.206999
 H         1.961347         2.028192         0.825009
