19
Iteration:  4357
 C        -0.147159        -0.167396        -0.221470
 C         1.305408         0.141113         0.060378
 C         1.925952         0.245748         1.637381
 C         3.456606         0.334509         1.427429
 C         3.303695         0.346814        -0.141008
 C         3.819018         0.815714        -1.574697
 O         2.631386         1.527206        -1.788444
 C         2.129084         1.282328        -0.433238
 O         2.348296        -0.782210        -0.460236
 H        -0.422649        -0.921640         0.498085
 H        -0.630407         0.822685        -0.064019
 H        -0.282309        -0.475512        -1.251362
 H         1.630276         1.129988         2.220276
 H         1.566744        -0.605194         2.144286
 H         3.952460         1.262520         1.652081
 H         4.075480        -0.497678         1.867666
 H         4.612091         1.444378        -1.769041
 H         3.890077        -0.091510        -2.132058
 H         1.975691         2.105471         0.245982
