19
Iteration:   713charge 0 multiplicity 1
 C        -0.196448        -0.314725        -0.224427
 C         1.361718         0.087206         0.095186
 C         2.109901        -0.505467         1.415737
 C         3.643452        -0.364482         1.007737
 C         3.328478         0.411571        -0.156518
 C         3.717545         1.326748        -1.373133
 O         2.448548         2.043570        -1.227466
 C         2.149883         1.388924         0.053470
 O         2.229166        -0.390803        -1.047801
 H        -0.162366        -1.145022        -0.903484
 H        -0.580591        -0.519590         0.743469
 H        -0.619152         0.547327        -0.667444
 H         2.074897         0.063332         2.374718
 H         1.836701        -1.546045         1.722043
 H         4.233572         0.089412         1.797528
 H         4.148567        -1.334040         0.674484
 H         4.539620         2.098993        -1.238322
 H         3.806504         0.928315        -2.370274
 H         2.046873         2.128756         0.947207
