19
Iteration:  3252
 C        -0.174786        -0.108338        -0.215964
 C         1.381142         0.151803         0.138307
 C         1.972633        -0.254917         1.511451
 C         3.526523         0.013082         1.313281
 C         3.369935         0.372725        -0.214635
 C         3.755142         1.133054        -1.488748
 O         2.458677         1.688953        -1.627784
 C         2.153365         1.380902        -0.145779
 O         2.368849        -0.635956        -0.724067
 H        -0.675643         0.920511        -0.414102
 H        -0.176459        -0.780224        -1.107634
 H        -0.617691        -0.613125         0.683000
 H         1.487673         0.335129         2.284804
 H         1.608181        -1.258505         1.863007
 H         3.948182         0.849435         1.906539
 H         4.129521        -0.911826         1.499248
 H         4.729591         1.800231        -1.476585
 H         3.919363         0.291408        -2.292585
 H         2.149799         2.351601         0.398239
