19
Iteration:  2420
 C        -0.088025        -0.208354        -0.100276
 C         1.341540        -0.029549         0.070989
 C         2.028392        -0.398721         1.400039
 C         3.573653        -0.264069         0.985006
 C         3.281769         0.357179        -0.314224
 C         3.773843         1.407295        -1.321215
 O         2.470370         2.002516        -1.270569
 C         2.176879         1.344987        -0.047778
 O         2.258859        -0.582686        -0.945057
 H        -0.535875         0.577129        -0.796239
 H        -0.495657        -1.168968        -0.505683
 H        -0.517749         0.036064         0.849351
 H         1.822303         0.169447         2.245181
 H         1.730647        -1.425198         1.642355
 H         4.179097         0.463089         1.485143
 H         4.114986        -1.128106         1.166281
 H         4.445075         2.068593        -0.668803
 H         3.975586         1.264765        -2.399319
 H         2.103991         2.019234         0.848849
