19
Iteration:  4802charge 0 multiplicity 1
 C        -0.168143        -0.080632        -0.050793
 C         1.294105         0.057232         0.033613
 C         1.868702         0.244463         1.485361
 C         3.471144         0.257540         1.311434
 C         3.288077         0.367664        -0.186030
 C         3.941597         0.932235        -1.436139
 O         2.580996         1.454793        -1.830420
 C         2.127471         1.345583        -0.401634
 O         2.367403        -0.865489        -0.459402
 H        -0.448513        -1.090386         0.280141
 H        -0.508511         0.752913         0.648423
 H        -0.471723         0.135434        -1.058334
 H         1.641899         1.186025         1.848093
 H         1.515323        -0.530731         2.080917
 H         3.902208         1.130331         1.804960
 H         3.772003        -0.673515         1.809451
 H         4.705952         1.768004        -1.344232
 H         4.353226         0.173058        -2.115939
 H         2.040534         2.301157         0.099127
