19
Iteration:   842charge 0 multiplicity 1
 C        -0.035848        -0.306024        -0.196171
 C         1.390438         0.154381         0.163500
 C         2.084866        -0.602056         1.348719
 C         3.626552        -0.446716         0.952333
 C         3.294830         0.453005        -0.240201
 C         3.727921         1.364899        -1.352934
 O         2.375916         2.100470        -1.240357
 C         2.158964         1.485793         0.038436
 O         2.213500        -0.451545        -0.913764
 H        -0.469601        -1.216648         0.342472
 H        -0.821039         0.513405        -0.037931
 H         0.005590        -0.483040        -1.301808
 H         1.923973        -0.121824         2.322792
 H         1.815405        -1.692018         1.281180
 H         4.231564        -0.012030         1.760380
 H         3.992500        -1.479071         0.650204
 H         4.621164         2.069357        -1.147079
 H         3.787865         0.681123        -2.222176
 H         2.051625         2.237282         0.752554
