19
Iteration:  1628
 C        -0.102810        -0.196521        -0.067094
 C         1.393701        -0.003862         0.005617
 C         2.110290        -0.557037         1.335714
 C         3.557021        -0.359994         1.021272
 C         3.273449         0.470303        -0.262186
 C         3.780767         1.385284        -1.321548
 O         2.382415         2.055831        -1.300452
 C         2.100425         1.375688        -0.007778
 O         2.332773        -0.476229        -0.948336
 H        -0.568541        -1.096211         0.429872
 H        -0.434992         0.497172         0.767822
 H        -0.623853         0.139910        -0.959488
 H         1.547010        -0.263776         2.187914
 H         1.929301        -1.631641         1.274887
 H         4.229237         0.222688         1.774630
 H         4.150752        -1.348285         0.766766
 H         4.524514         2.066885        -0.829472
 H         4.028462         0.815162        -2.217315
 H         1.967978         2.068939         0.823074
