19
Iteration:   161charge 0 multiplicity 1
 C        -0.134176        -0.273128        -0.244070
 C         1.364355         0.041385         0.075616
 C         2.163107        -0.628764         1.287665
 C         3.698225        -0.376197         0.953531
 C         3.284522         0.357182        -0.323129
 C         3.709582         1.424690        -1.355746
 O         2.408536         2.161270        -1.051167
 C         2.164809         1.353902         0.174613
 O         2.176033        -0.366524        -0.999195
 H        -0.179910        -0.353639        -1.380610
 H        -0.566651        -1.182636         0.173901
 H        -0.756890         0.553505         0.061629
 H         1.722344        -0.420227         2.243234
 H         2.074920        -1.783357         1.221210
 H         4.336074         0.179602         1.612822
 H         4.121065        -1.428955         0.808896
 H         4.560395         1.959385        -0.961157
 H         3.647810         1.021054        -2.411506
 H         2.224639         2.070525         1.115416
