19
Iteration:  3087charge 0 multiplicity 1
 C        -0.080275        -0.153141        -0.310210
 C         1.356412         0.079016         0.122731
 C         1.996309        -0.285191         1.558420
 C         3.608358        -0.148475         1.250768
 C         3.309023         0.369656        -0.249879
 C         3.725546         1.208327        -1.523983
 O         2.455517         1.937482        -1.440745
 C         2.184696         1.376981        -0.177600
 O         2.291263        -0.675916        -0.703838
 H        -0.646824        -0.603018         0.570083
 H        -0.797164         0.694574        -0.575924
 H        -0.241101        -0.922305        -1.160557
 H         1.771093         0.473747         2.278550
 H         1.622207        -1.273662         2.078532
 H         4.250234         0.634276         1.757683
 H         4.066417        -1.139629         1.364309
 H         4.577623         1.805466        -1.502274
 H         3.697085         0.594985        -2.479922
 H         2.101046         2.282950         0.436299
