19
Iteration:  4660
 C        -0.081300        -0.143962        -0.137131
 C         1.374918         0.180629         0.166037
 C         1.898386         0.187490         1.695582
 C         3.463525         0.243563         1.340903
 C         3.228594         0.448501        -0.172244
 C         3.904668         0.853900        -1.482685
 O         2.627109         1.280259        -1.898994
 C         2.107853         1.408654        -0.401220
 O         2.260565        -0.673804        -0.550732
 H        -0.320216        -1.263019        -0.063030
 H        -0.774501         0.477533         0.500855
 H        -0.336754         0.187526        -1.147982
 H         1.519594         0.963313         2.347053
 H         1.704172        -0.820683         2.120510
 H         4.010662         1.088177         1.863950
 H         3.909425        -0.731971         1.692469
 H         4.524193         1.686521        -1.454355
 H         4.362331         0.094958        -2.072357
 H         1.989276         2.545996        -0.216192
