19
Iteration:    17charge 0 multiplicity 1
 C        -0.022922        -0.172812        -0.195928
 C         1.375617        -0.045274        -0.070620
 C         2.132288        -0.670548         1.301304
 C         3.617960        -0.445875         0.918625
 C         3.296000         0.401823        -0.339201
 C         3.703980         1.470138        -1.354938
 O         2.385944         2.286656        -0.877693
 C         2.149388         1.267984         0.180414
 O         2.217268        -0.477962        -1.142057
 H        -0.452138        -0.314249         0.827217
 H        -0.634054         0.593716        -0.717789
 H        -0.313866        -1.123480        -0.709363
 H         1.885209         0.154968         2.057771
 H         1.764121        -1.594969         1.819320
 H         4.094350         0.183588         1.727484
 H         4.275883        -1.324888         0.720705
 H         4.583612         2.087006        -1.043606
 H         3.551199         1.155906        -2.405921
 H         2.111081         1.692004         1.257163
