19
Iteration:   728charge 0 multiplicity 1
 C        -0.062399        -0.250291        -0.120503
 C         1.359972         0.048308         0.109372
 C         2.076974        -0.552232         1.310689
 C         3.576989        -0.444996         0.950437
 C         3.254221         0.484039        -0.256792
 C         3.721056         1.333411        -1.362661
 O         2.394575         1.960242        -1.247631
 C         2.118354         1.446783         0.109520
 O         2.366333        -0.325627        -0.962410
 H        -0.066983        -1.235054        -0.638086
 H        -0.750848        -0.316290         0.737366
 H        -0.559587         0.462272        -0.818520
 H         1.722452         0.142868         2.113715
 H         1.685443        -1.505772         1.541287
 H         4.170974         0.076602         1.747666
 H         4.058092        -1.373855         0.783608
 H         4.658021         2.033547        -1.133099
 H         3.876070         0.622759        -2.247693
 H         2.036932         2.272507         0.887635
