19
Iteration:  3420charge 0 multiplicity 1
 C        -0.160980        -0.043384        -0.118703
 C         1.350624         0.138603         0.158157
 C         1.913986        -0.208530         1.563663
 C         3.479408         0.049692         1.237711
 C         3.264928         0.452080        -0.248037
 C         3.961954         1.120147        -1.424113
 O         2.477981         1.519384        -1.757981
 C         2.114390         1.368511        -0.294632
 O         2.370192        -0.702725        -0.607219
 H        -0.218806        -0.912893        -0.784942
 H        -0.545419        -0.256134         0.893451
 H        -0.610297         0.909966        -0.533393
 H         1.526045         0.549990         2.277020
 H         1.800681        -1.092649         1.981542
 H         3.890997         1.008266         1.688954
 H         4.137762        -0.797172         1.612969
 H         4.446470         2.161269        -1.189511
 H         4.477615         0.594212        -2.224048
 H         1.980481         2.321407         0.118170
