19
Iteration:  2515
 C        -0.088499        -0.225228        -0.236985
 C         1.329673        -0.026945         0.118263
 C         2.015545        -0.418944         1.438090
 C         3.592210        -0.264253         1.039144
 C         3.255194         0.354229        -0.301125
 C         3.734799         1.347807        -1.551036
 O         2.455154         2.151193        -1.195027
 C         2.183839         1.363457         0.021671
 O         2.281574        -0.626099        -0.863680
 H        -0.507717         0.515995        -0.938574
 H        -0.187893        -1.148050        -0.770042
 H        -0.704139        -0.198334         0.663547
 H         1.942872         0.335715         2.358655
 H         1.838526        -1.409414         1.789467
 H         3.886305         0.392674         1.824564
 H         4.347227        -1.156947         1.104060
 H         4.586966         1.959372        -1.298778
 H         3.868162         0.935005        -2.537980
 H         2.411083         1.916278         0.903461
