19
Iteration:  2450
 C        -0.115591        -0.133455        -0.037348
 C         1.328285         0.060101         0.123375
 C         2.022297        -0.544142         1.425814
 C         3.578659        -0.348662         1.053055
 C         3.277313         0.481346        -0.220867
 C         3.813666         1.397892        -1.283629
 O         2.408626         1.951022        -1.435186
 C         2.120452         1.365620        -0.135796
 O         2.357132        -0.538538        -0.946480
 H        -0.603033         0.785688        -0.402134
 H        -0.370632        -0.901043        -0.731926
 H        -0.572015        -0.336404         0.965490
 H         1.916205        -0.173837         2.450711
 H         1.772475        -1.564619         1.281572
 H         4.169996         0.256129         1.698416
 H         4.057843        -1.396689         0.857158
 H         4.476501         2.236058        -0.975017
 H         4.156607         1.155842        -2.272854
 H         1.988988         2.098213         0.627728
