19
Iteration:  3541charge 0 multiplicity 1
 C        -0.115204        -0.134112        -0.126483
 C         1.371766         0.166522         0.156294
 C         1.900339        -0.067254         1.570914
 C         3.465741         0.063460         1.321418
 C         3.280431         0.446443        -0.116273
 C         3.839132         0.985498        -1.492616
 O         2.524644         1.528859        -1.745285
 C         2.171357         1.412436        -0.382073
 O         2.343503        -0.650434        -0.664730
 H        -0.640438         0.798796        -0.171899
 H        -0.122459        -0.730189        -1.031117
 H        -0.382889        -0.813682         0.751618
 H         1.661929         0.719518         2.374672
 H         1.510023        -0.967013         1.916413
 H         3.709692         1.016421         1.926678
 H         4.072826        -0.818699         1.674820
 H         4.595301         1.806309        -1.481616
 H         4.260939         0.139804        -2.104525
 H         2.031620         2.403734         0.015700
