19
Iteration:   872charge 0 multiplicity 1
 C        -0.169008        -0.242497        -0.138322
 C         1.393324         0.014212         0.074477
 C         2.131131        -0.550654         1.435180
 C         3.605009        -0.314529         0.947945
 C         3.257078         0.397382        -0.348265
 C         3.803787         1.454045        -1.262696
 O         2.421602         2.047848        -1.210193
 C         2.145149         1.342071         0.048633
 O         2.238634        -0.487568        -1.046642
 H        -0.601546        -1.205393         0.087823
 H        -0.728511         0.556589         0.393535
 H        -0.511697        -0.016909        -1.149565
 H         1.870749         0.088563         2.242700
 H         1.980060        -1.615076         1.835104
 H         4.256380         0.209885         1.611017
 H         4.046894        -1.333333         0.877127
 H         4.640908         2.170742        -0.991407
 H         4.027721         0.959749        -2.253676
 H         2.002169         2.127556         0.862735
