19
Iteration:  2806
 C        -0.059806        -0.247179        -0.248804
 C         1.375522         0.144271         0.186840
 C         2.008749        -0.438371         1.481384
 C         3.492574        -0.378737         1.073324
 C         3.365012         0.419891        -0.277122
 C         3.684983         1.300988        -1.504344
 O         2.381903         1.988535        -1.340956
 C         2.216831         1.431050        -0.005619
 O         2.340712        -0.503799        -0.820518
 H        -0.690716        -0.091160         0.675609
 H        -0.077180         0.420282        -1.086334
 H         0.005430        -1.275944        -0.791214
 H         1.833193         0.144544         2.399762
 H         1.647306        -1.485617         1.580034
 H         4.050157         0.141879         1.901680
 H         3.971354        -1.368092         1.002935
 H         4.469877         1.985665        -1.342660
 H         3.790555         0.850872        -2.479499
 H         1.977306         2.247540         0.752617
