19
Iteration:  4159
 C        -0.119806        -0.126305        -0.177516
 C         1.396208         0.094732         0.069170
 C         1.945167         0.298008         1.603467
 C         3.405420         0.292072         1.355224
 C         3.286414         0.274021        -0.141136
 C         3.866138         0.850520        -1.463288
 O         2.510386         1.497522        -1.811696
 C         2.152853         1.348719        -0.421444
 O         2.363959        -0.828188        -0.505812
 H        -0.476779        -0.751795         0.667135
 H        -0.609363         0.772675        -0.174607
 H        -0.208487        -0.650450        -1.119618
 H         1.693887         1.237650         1.929574
 H         1.460698        -0.390766         2.282818
 H         3.760457         1.257605         1.657758
 H         3.835898        -0.555332         1.814954
 H         4.713873         1.635304        -1.271836
 H         4.218409         0.137057        -2.262512
 H         1.985156         2.290069         0.150188
