19
Iteration:  1823charge 0 multiplicity 1
 C        -0.002790        -0.297056        -0.215805
 C         1.340519         0.040744         0.140102
 C         2.098839        -0.553110         1.425424
 C         3.557536        -0.527542         1.070729
 C         3.323834         0.473396        -0.283599
 C         3.648179         1.450978        -1.507545
 O         2.424060         2.052815        -1.244574
 C         2.166487         1.448113        -0.003199
 O         2.285307        -0.393772        -0.847067
 H        -0.104773        -1.420529        -0.244250
 H        -0.591545         0.368422         0.438913
 H        -0.101780         0.146839        -1.199452
 H         1.609653         0.042450         2.256135
 H         1.726742        -1.630592         1.455285
 H         4.008334        -0.118479         1.951672
 H         3.826217        -1.469623         0.840552
 H         4.534467         2.029590        -1.354755
 H         3.677555         0.864764        -2.415169
 H         2.021934         2.330493         0.723418
