19
Iteration:  4534charge 0 multiplicity 1
 C        -0.097529        -0.138029        -0.101123
 C         1.298856         0.198725         0.143322
 C         1.841820         0.130664         1.638684
 C         3.328105         0.246376         1.374186
 C         3.326968         0.433430        -0.173332
 C         3.914671         0.820763        -1.538943
 O         2.510762         1.257438        -1.890776
 C         2.195680         1.386767        -0.466913
 O         2.435651        -0.574440        -0.465896
 H        -0.334697        -1.199093        -0.086437
 H        -0.629640         0.344356         0.841468
 H        -0.397235         0.259424        -1.111314
 H         1.448892         0.955252         2.410332
 H         1.545655        -0.847092         1.970011
 H         3.943640         1.073646         1.863536
 H         3.842223        -0.709086         1.599245
 H         4.509806         1.795569        -1.477403
 H         4.461305         0.112870        -2.223335
 H         2.315319         2.420046        -0.103112
