19
Iteration:  3230
 C        -0.028872        -0.230377        -0.259719
 C         1.373576         0.156548         0.144118
 C         1.986579        -0.230569         1.567351
 C         3.499604        -0.055936         1.260375
 C         3.265738         0.435055        -0.191806
 C         3.765891         0.988883        -1.539851
 O         2.470654         1.809762        -1.553173
 C         2.161283         1.455038        -0.260832
 O         2.311961        -0.560944        -0.641149
 H        -0.449774         0.592830        -0.938902
 H        -0.138765        -1.204573        -0.762942
 H        -0.710142        -0.236521         0.654227
 H         1.706314         0.291651         2.460958
 H         1.598248        -1.247591         1.788762
 H         4.121030         0.636569         1.852829
 H         3.989526        -1.047232         1.221703
 H         4.694984         1.655822        -1.444559
 H         3.933746         0.159807        -2.309340
 H         1.995468         2.297336         0.445046
