19
Iteration:  4965charge 0 multiplicity 1
 C        -0.127350        -0.164967        -0.009163
 C         1.326033         0.216555         0.092405
 C         1.876116         0.014023         1.565608
 C         3.433891         0.265775         1.379597
 C         3.277168         0.447988        -0.116367
 C         3.825095         0.893076        -1.480546
 O         2.584139         1.401195        -1.907455
 C         2.220347         1.447911        -0.530793
 O         2.371521        -0.713784        -0.471476
 H        -0.565152        -0.572841         0.850591
 H        -0.653030         0.762982        -0.283804
 H        -0.398883        -0.811616        -0.818295
 H         1.352762         0.762313         2.268227
 H         1.644120        -1.063457         1.665505
 H         3.766205         1.098515         1.950037
 H         4.030312        -0.599763         1.732024
 H         4.677163         1.557731        -1.466050
 H         4.262302         0.084051        -2.063435
 H         2.171851         2.421491        -0.094725
