19
Iteration:  2861
 C        -0.159496        -0.145910        -0.062128
 C         1.335166         0.029073         0.059336
 C         2.029376        -0.478975         1.413082
 C         3.560859        -0.162557         1.097352
 C         3.237733         0.412142        -0.278391
 C         3.866580         1.360158        -1.332345
 O         2.497488         2.002196        -1.423857
 C         2.146955         1.294915        -0.116753
 O         2.270414        -0.653623        -0.876169
 H        -0.581225        -0.911768         0.701993
 H        -0.638979         0.774408         0.318427
 H        -0.294467        -0.306226        -1.193265
 H         1.517697        -0.039416         2.315895
 H         1.972434        -1.566158         1.578248
 H         4.125941         0.680551         1.591962
 H         4.135230        -1.137501         1.132682
 H         4.451206         2.164462        -0.879101
 H         4.219285         1.037423        -2.311401
 H         2.145987         2.118831         0.669089
