19
Iteration:  1566charge 0 multiplicity 1
 C        -0.141342        -0.143671        -0.205613
 C         1.382009         0.027611         0.057885
 C         2.127932        -0.519539         1.414632
 C         3.681757        -0.340863         0.966848
 C         3.267780         0.346735        -0.272937
 C         3.645600         1.376054        -1.311588
 O         2.435393         2.123826        -1.209764
 C         2.088020         1.321109         0.028055
 O         2.319732        -0.562230        -0.952630
 H        -0.342382        -1.224380        -0.134051
 H        -0.693920         0.508475         0.536752
 H        -0.330578         0.182868        -1.235981
 H         1.788205         0.263739         2.164244
 H         1.814924        -1.582154         1.681968
 H         4.037602         0.336772         1.689523
 H         4.307523        -1.252517         0.791693
 H         4.473327         2.064826        -1.050579
 H         3.803311         0.993471        -2.384407
 H         1.985859         2.018782         0.906484
