19
Iteration:  3663charge 0 multiplicity 1
 C        -0.123642        -0.172465        -0.148129
 C         1.322743         0.208198         0.171796
 C         1.931352         0.040224         1.569370
 C         3.434536         0.103479         1.308693
 C         3.265676         0.466584        -0.151414
 C         3.835658         0.844401        -1.468365
 O         2.613481         1.516001        -1.834834
 C         2.058769         1.456310        -0.346367
 O         2.394628        -0.649758        -0.576663
 H         0.085540        -1.230530        -0.078269
 H        -0.803629         0.042507         0.687493
 H        -0.411834         0.186541        -1.150856
 H         1.562953         0.913020         2.218830
 H         1.624721        -0.934233         2.095272
 H         3.916592         0.914402         1.902214
 H         3.946066        -0.889581         1.439242
 H         4.663625         1.523591        -1.376458
 H         4.211812        -0.050022        -2.045349
 H         1.924861         2.394017         0.149685
