19
Iteration:  4811charge 0 multiplicity 1
 C        -0.171347        -0.020344        -0.077659
 C         1.359445         0.134837         0.094251
 C         1.869499         0.213947         1.545448
 C         3.392954         0.282694         1.357257
 C         3.284578         0.281123        -0.201351
 C         3.901896         0.964945        -1.519645
 O         2.620865         1.470662        -1.850422
 C         2.112452         1.291716        -0.439557
 O         2.412113        -0.889438        -0.459335
 H        -0.476800        -1.065360         0.186101
 H        -0.674766         0.456311         0.729505
 H        -0.638334         0.233559        -0.988202
 H         1.468489         1.127561         2.000480
 H         1.506287        -0.556700         2.255711
 H         3.868356         1.213325         1.704246
 H         3.985739        -0.574826         1.605296
 H         4.632485         1.757469        -1.059766
 H         4.378390         0.245422        -2.214021
 H         1.985528         2.147902         0.114744
