19
Iteration:  4402charge 0 multiplicity 1
 C        -0.186102        -0.090027        -0.149252
 C         1.322946         0.202384         0.102477
 C         1.904080         0.168059         1.660457
 C         3.479453         0.202478         1.334785
 C         3.342795         0.386072        -0.170472
 C         3.887003         1.008333        -1.432845
 O         2.585189         1.306989        -1.907179
 C         2.155684         1.374427        -0.496510
 O         2.308968        -0.786964        -0.439209
 H        -0.516650        -0.417483         0.811876
 H        -0.675126         0.848460        -0.623711
 H        -0.266473        -0.881214        -0.872979
 H         1.500873         0.859330         2.424571
 H         1.632600        -0.777001         2.015291
 H         3.914800         1.079670         1.889654
 H         4.166184        -0.656094         1.618853
 H         4.445743         1.835149        -1.161867
 H         4.347190         0.434701        -2.217532
 H         1.826311         2.405489        -0.039817
