19
Iteration:  2012charge 0 multiplicity 1
 C        -0.104853        -0.126932        -0.082114
 C         1.395571        -0.003478         0.082176
 C         2.095678        -0.633084         1.312860
 C         3.551791        -0.287932         1.079315
 C         3.317375         0.425790        -0.236619
 C         3.758434         1.368200        -1.331433
 O         2.405302         2.089818        -1.329202
 C         2.118194         1.401521        -0.012786
 O         2.304999        -0.586562        -0.939425
 H        -0.375367        -1.164114         0.141599
 H        -0.643977         0.630730         0.526213
 H        -0.477743         0.156346        -1.099614
 H         1.664331        -0.076324         2.222685
 H         1.867473        -1.740299         1.313549
 H         3.964895         0.385103         1.760175
 H         4.169872        -1.160234         0.852567
 H         4.495657         2.108832        -1.119289
 H         3.823173         0.989205        -2.350388
 H         2.108587         2.193338         0.806296
