19
Iteration:  2713charge 0 multiplicity 1
 C        -0.116302        -0.214425        -0.008953
 C         1.396727         0.125510         0.062224
 C         1.981909        -0.550047         1.372901
 C         3.556352        -0.259255         1.024176
 C         3.246846         0.374964        -0.265818
 C         3.786857         1.360489        -1.345830
 O         2.431947         1.957277        -1.354445
 C         2.146785         1.355168        -0.043137
 O         2.339159        -0.494894        -0.929276
 H        -0.462996         0.752105        -0.414808
 H        -0.212955        -1.052089        -0.776712
 H        -0.646309        -0.423319         0.892957
 H         1.795322        -0.000926         2.345531
 H         1.675969        -1.625043         1.384367
 H         4.037237         0.415656         1.821237
 H         4.200233        -1.169060         0.772296
 H         4.542316         2.108500        -0.808867
 H         4.264720         1.215880        -2.366053
 H         2.023227         2.173880         0.632129
