19
Iteration:   984charge 0 multiplicity 1
 C        -0.058403        -0.199188        -0.184973
 C         1.396550        -0.028014         0.024683
 C         2.056587        -0.549759         1.466153
 C         3.592349        -0.438270         0.953097
 C         3.306217         0.458916        -0.321389
 C         3.681555         1.500186        -1.408840
 O         2.420236         2.136148        -1.205008
 C         2.199285         1.385215         0.055249
 O         2.249088        -0.605674        -0.907866
 H        -0.378138        -1.259983        -0.325445
 H        -0.566502         0.329964         0.616372
 H        -0.286548         0.367883        -1.111533
 H         1.816370         0.108917         2.282555
 H         1.721804        -1.547389         1.626622
 H         4.159326         0.150339         1.706915
 H         3.993279        -1.433581         0.969281
 H         4.476544         2.186695        -1.006202
 H         3.871588         1.089513        -2.392898
 H         1.939745         2.076898         0.925730
