19
Iteration:  3210
 C        -0.028651        -0.232668        -0.192510
 C         1.320721         0.101942         0.183940
 C         1.936628        -0.144668         1.548828
 C         3.531500        -0.113227         1.139478
 C         3.230809         0.435554        -0.203717
 C         3.767871         1.099033        -1.498864
 O         2.585644         1.843023        -1.634516
 C         2.133547         1.459076        -0.099750
 O         2.284467        -0.668807        -0.691347
 H        -0.303460        -0.095855        -1.302057
 H        -0.064391        -1.343909        -0.116610
 H        -0.959900         0.062714         0.321979
 H         1.704049         0.635076         2.343785
 H         1.747004        -1.092643         1.975747
 H         4.067311         0.673663         1.743624
 H         4.039457        -1.139302         1.226407
 H         4.667138         1.707222        -1.350483
 H         3.970010         0.376040        -2.263770
 H         2.049997         2.269729         0.597159
