19
Iteration:  1858
 C        -0.070992        -0.132800        -0.205594
 C         1.376699         0.022272         0.110510
 C         2.136107        -0.459023         1.355871
 C         3.597952        -0.317205         0.979790
 C         3.205550         0.423581        -0.346161
 C         3.748158         1.414807        -1.278776
 O         2.415543         1.972759        -1.216235
 C         2.132539         1.339527        -0.003048
 O         2.269484        -0.551445        -0.907498
 H        -0.357186        -1.063671        -0.706762
 H        -0.773358        -0.266505         0.645489
 H        -0.474213         0.554399        -0.926693
 H         1.889585         0.040929         2.371863
 H         1.862433        -1.584402         1.520895
 H         4.183732         0.284685         1.677698
 H         4.217586        -1.238399         0.881054
 H         4.576240         2.020895        -0.861616
 H         3.985207         1.053968        -2.314080
 H         1.961663         2.068820         0.834985
