19
Iteration:  1876
 C        -0.133317        -0.148043        -0.102700
 C         1.301226         0.015812         0.050979
 C         2.059677        -0.614694         1.453131
 C         3.642606        -0.266260         1.036882
 C         3.372339         0.295964        -0.346686
 C         3.753246         1.457993        -1.301052
 O         2.434523         2.141805        -1.324241
 C         2.108510         1.337592        -0.047778
 O         2.262638        -0.617606        -0.944248
 H        -0.429488        -0.981176        -0.853999
 H        -0.579003        -0.137030         0.928816
 H        -0.496595         0.750242        -0.675291
 H         1.583311        -0.055873         2.229263
 H         1.922444        -1.667497         1.655990
 H         4.096377         0.511772         1.669744
 H         4.209228        -1.143219         1.133936
 H         4.443895         2.121274        -0.767337
 H         4.239491         1.287917        -2.247099
 H         2.148306         2.086863         0.795290
