19
Iteration:  2781charge 0 multiplicity 1
 C        -0.070202        -0.239795        -0.210583
 C         1.362534         0.077953         0.073702
 C         2.035088        -0.468811         1.455506
 C         3.603258        -0.307423         1.085164
 C         3.306765         0.463879        -0.265388
 C         3.729789         1.279638        -1.403205
 O         2.405687         2.011791        -1.319298
 C         2.169320         1.426559        -0.023141
 O         2.258251        -0.517883        -0.875026
 H        -0.596098         0.537310         0.284139
 H        -0.140439        -0.184784        -1.310612
 H        -0.353839        -1.208807         0.234599
 H         1.757653         0.176661         2.316094
 H         1.735692        -1.580661         1.545406
 H         4.205569         0.137293         2.001682
 H         4.033803        -1.270360         0.870282
 H         4.653008         1.960485        -1.315970
 H         3.821877         0.753917        -2.403605
 H         2.163626         2.102308         0.836114
