19
Iteration:  3766
 C        -0.021647        -0.281193        -0.219609
 C         1.294623         0.233908         0.155132
 C         1.857025         0.176713         1.620188
 C         3.409768         0.180373         1.345372
 C         3.278665         0.433131        -0.124328
 C         3.801471         0.803144        -1.583357
 O         2.612049         1.475990        -1.833057
 C         2.245246         1.457815        -0.342284
 O         2.279847        -0.646761        -0.484391
 H        -0.552640         0.528276        -0.784579
 H         0.175727        -1.259843        -0.669451
 H        -0.491939        -0.582724         0.714807
 H         1.577919         0.938381         2.333010
 H         1.487906        -0.819491         2.000551
 H         3.943940         0.985167         1.818803
 H         3.895569        -0.725460         1.497358
 H         4.736442         1.480220        -1.544913
 H         3.889817        -0.131233        -2.151734
 H         2.233697         2.362839         0.141635
