19
Iteration:  2340
 C        -0.093461        -0.155572        -0.174685
 C         1.364374         0.003031         0.148079
 C         2.033721        -0.545775         1.384188
 C         3.681868        -0.335096         1.059885
 C         3.293061         0.355811        -0.321842
 C         3.753023         1.426355        -1.329960
 O         2.382299         1.974729        -1.321106
 C         2.098900         1.393400        -0.007099
 O         2.284422        -0.474740        -0.940962
 H        -0.085194        -0.580510        -1.156650
 H        -0.530246        -0.560401         0.713812
 H        -0.649417         0.847826        -0.172444
 H         1.823974         0.032412         2.236369
 H         1.818908        -1.536164         1.648545
 H         4.044956         0.310059         1.804144
 H         4.018723        -1.419652         1.091197
 H         4.525443         2.227298        -1.119938
 H         4.082111         1.040142        -2.317163
 H         2.247808         2.036412         0.851370
