19
Iteration:  4837
 C        -0.103241        -0.094866        -0.154865
 C         1.352885         0.150246         0.186105
 C         1.882076         0.109585         1.611822
 C         3.429910         0.361659         1.350485
 C         3.272650         0.337583        -0.190019
 C         3.956582         0.867711        -1.512183
 O         2.571677         1.412757        -1.923866
 C         2.169595         1.373491        -0.408350
 O         2.257514        -0.763885        -0.459947
 H        -0.399114        -1.102607        -0.404127
 H        -0.787991         0.163357         0.741692
 H        -0.458428         0.550467        -1.018310
 H         1.475405         0.768028         2.348690
 H         1.746934        -0.821963         2.055712
 H         3.844120         1.317181         1.682167
 H         4.092346        -0.460467         1.818232
 H         4.657308         1.641520        -1.269666
 H         4.357128         0.015313        -2.058112
 H         2.228400         2.358461         0.132739
