19
Iteration:  3615
 C        -0.127066        -0.240327        -0.150549
 C         1.363657         0.166761         0.109563
 C         1.889312         0.161088         1.597014
 C         3.488293         0.191418         1.250882
 C         3.273355         0.259137        -0.181638
 C         3.821931         0.923352        -1.468099
 O         2.557046         1.684031        -1.653825
 C         2.170098         1.322805        -0.404282
 O         2.342353        -0.775058        -0.588435
 H        -0.713468        -0.607856         0.689045
 H        -0.513867         0.687373        -0.534636
 H         0.008839        -0.826169        -1.055839
 H         1.510485         1.153089         2.118159
 H         1.521164        -0.671960         2.107546
 H         3.883773         1.178797         1.593768
 H         4.042481        -0.714329         1.588557
 H         4.726523         1.538055        -1.395989
 H         3.929065         0.246134        -2.218131
 H         2.210402         2.144618         0.439935
