19
Iteration:  4776
 C        -0.100767        -0.189116        -0.106115
 C         1.285436         0.222770         0.134960
 C         1.901045         0.197195         1.673864
 C         3.418309         0.181030         1.364110
 C         3.238297         0.393238        -0.193352
 C         3.882154         0.830683        -1.489267
 O         2.654766         1.415575        -1.892263
 C         2.085713         1.418188        -0.407897
 O         2.358223        -0.666622        -0.557729
 H        -0.163994        -0.994246         0.640734
 H        -0.778535         0.603741        -0.014112
 H        -0.175129        -0.689597        -1.080208
 H         1.719841         1.186517         2.205876
 H         1.452703        -0.717655         2.223807
 H         4.047436         0.888355         1.951122
 H         3.741422        -0.815043         1.649653
 H         4.770473         1.585205        -1.405690
 H         4.278188        -0.029072        -2.103640
 H         1.928441         2.435180        -0.099892
