19
Iteration:  4735
 C        -0.120491        -0.225090        -0.169244
 C         1.344366         0.258090         0.083637
 C         1.881853         0.203416         1.580928
 C         3.476695         0.262813         1.306501
 C         3.266306         0.374430        -0.150654
 C         3.843612         0.732872        -1.507596
 O         2.611720         1.476712        -1.776417
 C         2.132936         1.443727        -0.352827
 O         2.338269        -0.712260        -0.464803
 H        -0.608449        -0.752567         0.722276
 H        -0.815521         0.535593        -0.539673
 H        -0.075526        -0.926171        -0.996564
 H         1.458914         0.969737         2.141606
 H         1.755518        -0.795065         1.977323
 H         3.906906         1.227409         1.669887
 H         4.005049        -0.656274         1.560518
 H         4.815392         1.328246        -1.559493
 H         3.898608        -0.084765        -2.244410
 H         2.108548         2.405708         0.133401
