19
Iteration:  3122
 C        -0.117472        -0.112413        -0.168546
 C         1.337763         0.138396         0.159795
 C         1.981027        -0.415976         1.487464
 C         3.558259        -0.080567         1.225378
 C         3.291019         0.450864        -0.198753
 C         3.856901         1.133165        -1.417247
 O         2.419869         1.763806        -1.554708
 C         2.165642         1.427658        -0.207522
 O         2.285864        -0.560671        -0.784868
 H        -0.281951        -1.190667         0.228826
 H        -0.761847         0.648354         0.322329
 H        -0.146902        -0.078988        -1.312552
 H         1.731222         0.233129         2.401101
 H         1.990609        -1.524702         1.628886
 H         3.966947         0.741924         1.921060
 H         4.237696        -1.019207         1.317038
 H         4.635907         1.816832        -1.343213
 H         3.921876         0.467391        -2.273307
 H         2.079526         2.261248         0.465579
