19
Iteration:  2591
 C        -0.142650        -0.206513        -0.037873
 C         1.437548         0.096880         0.118282
 C         2.071019        -0.668923         1.328564
 C         3.569201        -0.332148         1.081837
 C         3.280339         0.393550        -0.242919
 C         3.851337         1.475991        -1.337130
 O         2.417100         1.933557        -1.408215
 C         2.096502         1.448507        -0.073689
 O         2.264788        -0.448658        -0.877914
 H        -0.429725        -0.588761        -1.031705
 H        -0.562901        -0.917403         0.643024
 H        -0.704222         0.704758         0.097194
 H         1.759331        -0.267017         2.328119
 H         1.774356        -1.634359         1.034846
 H         4.075385         0.389034         1.681394
 H         4.169534        -1.292138         0.876156
 H         4.576859         2.180993        -1.016036
 H         4.208102         1.112602        -2.250383
 H         1.810529         2.172441         0.663076
