19
Iteration:  1016charge 0 multiplicity 1
 C        -0.121035        -0.170494        -0.072191
 C         1.361110        -0.073800         0.030592
 C         2.063959        -0.578505         1.352208
 C         3.618012        -0.289427         0.923321
 C         3.235978         0.399732        -0.305030
 C         3.744404         1.411701        -1.266123
 O         2.464759         2.076142        -1.229501
 C         2.144279         1.378499         0.082983
 O         2.300394        -0.489372        -1.050458
 H        -0.566280        -1.094432         0.310054
 H        -0.636335         0.626978         0.411782
 H        -0.441379        -0.136727        -1.109362
 H         1.702251        -0.089368         2.259217
 H         1.843219        -1.642457         1.502084
 H         4.107892         0.433115         1.592034
 H         4.216488        -1.189200         0.966581
 H         4.506448         1.995043        -0.812021
 H         4.125193         0.946692        -2.146236
 H         1.887333         1.938261         1.041688
