19
Iteration:  2594
 C        -0.114329        -0.187011        -0.031957
 C         1.398614         0.083707         0.096416
 C         2.064237        -0.665163         1.317218
 C         3.577919        -0.330564         1.064160
 C         3.307528         0.389076        -0.239488
 C         3.850060         1.462948        -1.297597
 O         2.403753         1.946759        -1.401753
 C         2.093403         1.459173        -0.084728
 O         2.265012        -0.471067        -0.877883
 H        -0.367718        -0.542890        -1.072214
 H        -0.577770        -0.885830         0.752481
 H        -0.719231         0.678157         0.086176
 H         1.802699        -0.239396         2.343193
 H         1.820889        -1.762493         1.090146
 H         4.039397         0.473489         1.736777
 H         4.186188        -1.249865         0.864363
 H         4.598705         2.174591        -1.053308
 H         4.149707         1.068263        -2.314796
 H         1.784248         2.234821         0.645262
