19
Iteration:  4602
 C        -0.090709        -0.214622        -0.091057
 C         1.338508         0.177759         0.137248
 C         1.838671         0.343279         1.594706
 C         3.426522         0.326255         1.317816
 C         3.240375         0.291697        -0.210229
 C         3.890657         0.758890        -1.592477
 O         2.634148         1.616876        -1.761833
 C         2.205594         1.278645        -0.460577
 O         2.296539        -0.841280        -0.429078
 H         0.018334        -1.249529        -0.620274
 H        -0.700635        -0.343497         0.816070
 H        -0.473977         0.434643        -0.963817
 H         1.461039         1.315072         1.906485
 H         1.573018        -0.510268         2.305783
 H         3.765370         1.365021         1.761649
 H         3.930084        -0.549992         1.771650
 H         4.702744         1.503150        -1.606042
 H         4.054167        -0.070468        -2.322985
 H         2.135647         2.233669         0.153535
