19
Iteration:   973
 C         0.016275        -0.179408        -0.228945
 C         1.420981         0.038925         0.168699
 C         2.029711        -0.583221         1.388999
 C         3.568476        -0.410117         0.969215
 C         3.316823         0.404657        -0.290534
 C         3.685424         1.456239        -1.384311
 O         2.408995         2.177369        -1.304698
 C         2.102870         1.361334         0.105419
 O         2.239665        -0.578258        -0.876283
 H        -0.110218        -1.275738        -0.410029
 H        -0.624758        -0.018842         0.652875
 H        -0.332130         0.403564        -1.098741
 H         1.770378        -0.071581         2.297568
 H         1.867206        -1.620297         1.605133
 H         4.247309         0.046626         1.720457
 H         3.975733        -1.336381         0.553166
 H         4.638509         2.054870        -1.171303
 H         3.780280         1.119734        -2.415438
 H         2.263308         2.162498         0.916176
