19
Iteration:  3229charge 0 multiplicity 1
 C        -0.030385        -0.235044        -0.264100
 C         1.378473         0.157810         0.145642
 C         1.989256        -0.228923         1.566671
 C         3.496120        -0.054402         1.251739
 C         3.268270         0.433106        -0.198871
 C         3.766194         0.993079        -1.531729
 O         2.474395         1.812421        -1.556321
 C         2.154860         1.450201        -0.253381
 O         2.306503        -0.561042        -0.635202
 H        -0.411188         0.576446        -0.936140
 H        -0.123179        -1.217288        -0.743518
 H        -0.685374        -0.212399         0.666851
 H         1.694659         0.290208         2.440665
 H         1.573959        -1.266615         1.812519
 H         4.115753         0.616798         1.849800
 H         3.970403        -1.022038         1.201555
 H         4.719261         1.654339        -1.456485
 H         3.919953         0.138813        -2.316206
 H         2.005704         2.332735         0.447978
