19
Iteration:  1854
 C        -0.056253        -0.142120        -0.209550
 C         1.321540         0.067896         0.112416
 C         2.146623        -0.485653         1.383361
 C         3.593424        -0.332015         0.947549
 C         3.231711         0.443253        -0.316834
 C         3.740894         1.377807        -1.271877
 O         2.379061         1.981899        -1.216570
 C         2.151499         1.327506        -0.004072
 O         2.295525        -0.528985        -0.916114
 H        -0.188709        -1.154805        -0.768048
 H        -0.746405        -0.164095         0.663219
 H        -0.487706         0.499026        -1.010675
 H         1.874060         0.083554         2.264391
 H         1.896116        -1.509886         1.599156
 H         4.126540         0.254845         1.704464
 H         4.106681        -1.229877         0.815134
 H         4.549718         2.025066        -0.973604
 H         3.983681         0.905385        -2.202810
 H         2.082630         2.070834         0.835260
