19
Iteration:  2787charge 0 multiplicity 1
 C        -0.072534        -0.218303        -0.248506
 C         1.412572         0.089739         0.090750
 C         1.995825        -0.477836         1.455026
 C         3.638178        -0.340218         1.118194
 C         3.254006         0.411025        -0.236737
 C         3.730036         1.332846        -1.455992
 O         2.413163         2.000124        -1.335443
 C         2.149925         1.432179        -0.010171
 O         2.275540        -0.493510        -0.843552
 H        -0.662695         0.448577         0.466961
 H        -0.275266        -0.294142        -1.345074
 H        -0.109948        -1.290284         0.032244
 H         1.721596         0.102804         2.341484
 H         1.688484        -1.467348         1.653047
 H         4.221279         0.074521         1.883340
 H         4.023634        -1.370625         0.895815
 H         4.572539         2.032642        -1.455043
 H         3.662958         0.761276        -2.377011
 H         2.385313         2.254828         0.712980
