19
Iteration:  3276
 C        -0.094878        -0.050739        -0.086967
 C         1.389350         0.059413         0.079445
 C         1.946231        -0.169013         1.534954
 C         3.497248         0.026707         1.220130
 C         3.268575         0.348802        -0.239218
 C         3.849458         1.130417        -1.399578
 O         2.473770         1.721331        -1.650934
 C         2.064245         1.375917        -0.249908
 O         2.369603        -0.772134        -0.711082
 H        -0.449693         0.993721         0.335316
 H        -0.123351        -0.071679        -1.218679
 H        -0.528710        -0.934308         0.407676
 H         1.390386         0.325992         2.387950
 H         1.810925        -1.137252         1.826107
 H         3.874994         0.929592         1.783765
 H         4.186475        -0.891042         1.424727
 H         4.523398         1.976255        -0.968279
 H         4.295627         0.788295        -2.333733
 H         2.030299         2.257189         0.325828
