19
Iteration:   364charge 0 multiplicity 1
 C        -0.098495        -0.153622        -0.115240
 C         1.381115        -0.091479         0.014183
 C         2.070543        -0.557873         1.383102
 C         3.569115        -0.296718         1.006150
 C         3.291928         0.413091        -0.279013
 C         3.774519         1.435565        -1.251096
 O         2.422295         2.037130        -1.263939
 C         2.091029         1.273130         0.003494
 O         2.292518        -0.437093        -1.044468
 H        -0.507256        -1.190693        -0.481057
 H        -0.377334        -0.061543         0.987165
 H        -0.573178         0.704242        -0.693242
 H         1.718736         0.145121         2.168502
 H         1.863259        -1.617443         1.774583
 H         4.268760         0.258812         1.620197
 H         4.203286        -1.261055         1.101130
 H         4.409413         2.168021        -0.771630
 H         4.056219         1.092115        -2.224414
 H         2.088204         2.002405         0.797653
