19
Iteration:  2927charge 0 multiplicity 1
 C        -0.058788        -0.252307        -0.272750
 C         1.309010         0.063179         0.123708
 C         2.044366        -0.334178         1.524395
 C         3.601446        -0.260326         1.063690
 C         3.248731         0.374764        -0.262508
 C         3.737383         1.208268        -1.456968
 O         2.449003         1.988939        -1.395312
 C         2.127244         1.467267        -0.075515
 O         2.302072        -0.538551        -0.767217
 H         0.088269        -0.850403        -1.185886
 H        -0.630741        -0.787289         0.475796
 H        -0.491511         0.766929        -0.343434
 H         2.009420         0.328068         2.454659
 H         1.688584        -1.305807         1.853974
 H         4.131124         0.184805         1.911738
 H         4.022443        -1.324340         0.954235
 H         4.617745         1.898461        -1.208533
 H         4.052664         0.505782        -2.237885
 H         1.924963         2.284857         0.689108
