19
Iteration:  3739
 C        -0.178004        -0.134394        -0.173394
 C         1.305433         0.122654         0.148760
 C         1.925826         0.164823         1.573188
 C         3.456652         0.271701         1.356866
 C         3.315919         0.383669        -0.136954
 C         3.829449         0.826461        -1.484425
 O         2.605311         1.556662        -1.780037
 C         2.143380         1.364154        -0.393314
 O         2.374570        -0.798524        -0.584558
 H        -0.314124         0.310126        -1.148047
 H        -0.192975        -1.237202        -0.193367
 H        -0.786131         0.230392         0.708031
 H         1.582071         1.039651         2.223153
 H         1.623115        -0.800056         2.126522
 H         3.896963         1.205320         1.809338
 H         4.004074        -0.705720         1.612200
 H         4.655010         1.520075        -1.346943
 H         4.124183         0.035721        -2.213019
 H         1.700005         2.363740         0.053979
