19
Iteration:  2294charge 0 multiplicity 1
 C        -0.156321        -0.123060        -0.071593
 C         1.359231        -0.015268         0.094145
 C         2.048361        -0.536542         1.358831
 C         3.624098        -0.338186         1.071112
 C         3.302846         0.392753        -0.328940
 C         3.782791         1.427565        -1.295369
 O         2.423818         2.077586        -1.322699
 C         2.139280         1.288605        -0.060344
 O         2.308142        -0.564910        -0.924853
 H        -0.272212        -0.897310        -0.803495
 H        -0.681475        -0.192184         0.852986
 H        -0.696387         0.723129        -0.492581
 H         1.633676        -0.049864         2.246433
 H         1.724285        -1.590433         1.456575
 H         4.112154         0.459591         1.713866
 H         4.323867        -1.128893         0.714975
 H         4.497633         2.109294        -0.793121
 H         4.197007         1.307238        -2.309768
 H         1.794723         2.007058         0.652424
