19
Iteration:  4430
 C        -0.117292        -0.169822        -0.052874
 C         1.312748         0.209517         0.165649
 C         1.865992         0.153936         1.598296
 C         3.378163         0.172538         1.324757
 C         3.304426         0.489195        -0.162517
 C         3.879645         0.856762        -1.430682
 O         2.599235         1.356780        -1.917179
 C         2.126405         1.369812        -0.448093
 O         2.415140        -0.622246        -0.535584
 H        -0.537824        -0.481762         0.930932
 H        -0.572397         0.671851        -0.459811
 H        -0.137070        -1.006744        -0.786298
 H         1.503504         0.952915         2.259156
 H         1.486547        -0.854692         2.041207
 H         3.753051         0.940007         1.972445
 H         3.943952        -0.719740         1.444688
 H         4.815206         1.590720        -1.548401
 H         4.059274        -0.104570        -1.969851
 H         2.009158         2.361249        -0.089685
