19
Iteration:  2245
 C        -0.059157        -0.337458        -0.201184
 C         1.298472         0.171637         0.181682
 C         2.078629        -0.545581         1.375841
 C         3.574359        -0.408505         1.015340
 C         3.300617         0.460139        -0.246055
 C         3.728680         1.339179        -1.420899
 O         2.519410         2.099547        -1.230081
 C         2.126306         1.432156         0.001209
 O         2.235334        -0.478007        -0.909752
 H        -0.123273        -1.454780         0.044226
 H        -0.883158         0.286487         0.250058
 H        -0.213706        -0.161429        -1.309292
 H         1.806881        -0.118900         2.424518
 H         1.784327        -1.624388         1.399424
 H         4.146700         0.270577         1.655884
 H         3.966793        -1.420583         0.840694
 H         4.586249         1.990040        -1.449382
 H         3.671340         0.818787        -2.377853
 H         2.153623         2.246671         0.787859
