19
Iteration:  2590charge 0 multiplicity 1
 C        -0.150959        -0.214394        -0.041511
 C         1.445327         0.100656         0.126122
 C         2.073711        -0.665437         1.335156
 C         3.567122        -0.334961         1.084930
 C         3.271809         0.398903        -0.245839
 C         3.846138         1.476018        -1.350299
 O         2.423372         1.929790        -1.410287
 C         2.098363         1.441651        -0.068887
 O         2.266522        -0.441632        -0.880083
 H        -0.442892        -0.602178        -1.012198
 H        -0.550552        -0.936748         0.610941
 H        -0.707506         0.738866         0.104292
 H         1.740152        -0.295878         2.308504
 H         1.757299        -1.607653         1.027889
 H         4.092059         0.352834         1.679358
 H         4.154655        -1.280323         0.892660
 H         4.586338         2.216655        -0.975854
 H         4.230448         1.112518        -2.253091
 H         1.830596         2.168827         0.679511
