19
Iteration:  4984charge 0 multiplicity 1
 C        -0.079007        -0.125963        -0.114409
 C         1.356720         0.209216         0.120177
 C         1.886337         0.087920         1.569498
 C         3.388056         0.263441         1.373402
 C         3.363208         0.450218        -0.131554
 C         3.935089         0.743427        -1.531178
 O         2.512262         1.358821        -1.814980
 C         2.078873         1.399939        -0.357569
 O         2.394739        -0.603304        -0.572878
 H        -0.340045        -0.652891         0.885347
 H        -0.766173         0.707121        -0.297317
 H        -0.244413        -0.874656        -0.887072
 H         1.389559         0.881051         2.198408
 H         1.503671        -0.934106         1.932161
 H         3.817522         1.133545         1.945591
 H         4.017265        -0.578454         1.638936
 H         4.550367         1.585457        -1.686247
 H         4.196966        -0.087364        -2.211469
 H         1.767851         2.476820         0.034257
