19
Iteration:  4499
 C        -0.045918        -0.181066        -0.197162
 C         1.380448         0.117939         0.120391
 C         1.915211         0.260372         1.546351
 C         3.458088         0.319569         1.279331
 C         3.232492         0.358332        -0.154887
 C         3.824398         0.776855        -1.458372
 O         2.591486         1.556963        -1.804756
 C         2.085863         1.309787        -0.433150
 O         2.316399        -0.797413        -0.398401
 H        -0.468406        -0.964836         0.412548
 H        -0.564944         0.831887        -0.027813
 H        -0.156473        -0.366661        -1.256046
 H         1.713836         1.189508         2.218246
 H         1.600626        -0.609844         2.097414
 H         3.986961         1.172641         1.630851
 H         3.902141        -0.612170         1.668434
 H         4.720007         1.526734        -1.270162
 H         4.047229        -0.011787        -2.215761
 H         2.035267         2.228398         0.054468
