19
Iteration:  1119charge 0 multiplicity 1
 C        -0.103443        -0.191896        -0.235831
 C         1.324858         0.083099         0.160288
 C         2.087143        -0.500434         1.396614
 C         3.591956        -0.336128         0.913402
 C         3.372913         0.395734        -0.340487
 C         3.761402         1.471598        -1.399056
 O         2.383588         2.160894        -1.145392
 C         2.159268         1.279808         0.043081
 O         2.258633        -0.656164        -0.893181
 H        -0.159050        -1.179598        -0.792676
 H        -0.923093        -0.234663         0.575596
 H        -0.404134         0.635459        -0.925949
 H         1.728348         0.037262         2.264831
 H         1.808406        -1.551909         1.482581
 H         4.080232         0.367249         1.641695
 H         4.040281        -1.422742         0.879104
 H         4.664991         1.986258        -0.943155
 H         3.837524         1.115197        -2.480263
 H         2.266354         1.859155         0.958000
