19
Iteration:  4752charge 0 multiplicity 1
 C        -0.073064        -0.320710        -0.177576
 C         1.292007         0.262867         0.226972
 C         1.845170         0.137848         1.646687
 C         3.442212         0.214129         1.349090
 C         3.298812         0.416137        -0.157443
 C         3.867608         0.775942        -1.567657
 O         2.607140         1.481381        -1.874709
 C         2.269900         1.472491        -0.506251
 O         2.201896        -0.604935        -0.417081
 H        -0.328081        -0.939410         0.642881
 H        -0.748192         0.515529        -0.433405
 H         0.081191        -1.052462        -1.019404
 H         1.597005         1.000491         2.417698
 H         1.463622        -0.916619         1.906268
 H         4.058057         0.938289         1.915747
 H         3.947289        -0.785127         1.493555
 H         4.763690         1.416210        -1.437265
 H         4.260147        -0.105002        -2.115062
 H         2.193529         2.493165         0.021567
