19
Iteration:  4245charge 0 multiplicity 1
 C        -0.175360        -0.089670        -0.107222
 C         1.337564         0.153633         0.069405
 C         1.841862         0.152926         1.596344
 C         3.417446         0.357964         1.395193
 C         3.284931         0.348570        -0.184255
 C         3.912551         0.862558        -1.491761
 O         2.611404         1.417919        -1.873290
 C         2.171071         1.286766        -0.479772
 O         2.395225        -0.766331        -0.432029
 H        -0.559281        -1.111918        -0.480975
 H        -0.654951         0.055829         0.830919
 H        -0.718403         0.623195        -0.765193
 H         1.553028         1.020369         2.172020
 H         1.485793        -0.831380         2.091248
 H         3.788951         1.328405         1.851851
 H         3.998318        -0.428503         1.832716
 H         4.605382         1.703539        -1.428922
 H         4.238948         0.188483        -2.278706
 H         2.232209         2.227346        -0.028277
