19
Iteration:  4069
 C        -0.067632        -0.209914        -0.203049
 C         1.350261         0.137974         0.132119
 C         1.791323         0.339851         1.612838
 C         3.464574         0.265963         1.354235
 C         3.276464         0.377611        -0.189866
 C         3.793612         0.800826        -1.484378
 O         2.600604         1.482807        -1.827933
 C         2.181084         1.388416        -0.442476
 O         2.367121        -0.813316        -0.412778
 H        -0.204349        -1.240120         0.122527
 H        -0.882891         0.369634         0.250874
 H        -0.152153        -0.137937        -1.282678
 H         1.525605         1.231419         2.062552
 H         1.495930        -0.506671         2.305050
 H         4.036002         1.181753         1.722822
 H         4.079615        -0.604572         1.499713
 H         4.628915         1.558440        -1.499404
 H         3.873461        -0.021626        -2.286947
 H         2.191911         2.327474         0.097178
