19
Iteration:  2488charge 0 multiplicity 1
 C        -0.054049        -0.179258        -0.179769
 C         1.390205         0.111376         0.127017
 C         2.059046        -0.492578         1.424051
 C         3.606190        -0.307908         1.052242
 C         3.290627         0.364339        -0.219304
 C         3.721101         1.258162        -1.403220
 O         2.384426         2.008803        -1.327538
 C         2.116248         1.450739        -0.042785
 O         2.283595        -0.475477        -0.922204
 H        -0.646193         0.641970        -0.609496
 H        -0.001039        -1.018788        -0.942788
 H        -0.558781        -0.546602         0.733803
 H         1.712247        -0.299142         2.426050
 H         1.921103        -1.625232         1.347192
 H         4.033421         0.294128         1.908240
 H         4.246857        -1.125555         1.074568
 H         4.431261         2.048012        -1.084012
 H         3.870514         0.516707        -2.219311
 H         2.292278         2.235422         0.753308
