19
Iteration:  3991charge 0 multiplicity 1
 C        -0.114306        -0.117688        -0.075942
 C         1.343927         0.217667         0.122377
 C         1.778138         0.051882         1.599235
 C         3.373440         0.328436         1.429165
 C         3.353355         0.503883        -0.144440
 C         3.855217         0.834969        -1.449114
 O         2.638271         1.269964        -1.942920
 C         2.176449         1.409928        -0.555369
 O         2.365405        -0.676053        -0.442397
 H        -0.171283        -1.138702        -0.391484
 H        -0.441448        -0.032188         1.011412
 H        -0.712269         0.445408        -0.802975
 H         1.435189         0.761554         2.316284
 H         1.447766        -0.953934         1.954939
 H         3.766306         1.299953         1.902338
 H         4.063518        -0.527432         1.717439
 H         4.645318         1.598445        -1.748412
 H         4.190655        -0.085701        -2.108124
 H         2.077235         2.460675        -0.309891
