19
Iteration:  1844charge 0 multiplicity 1
 C        -0.101566        -0.202756        -0.256253
 C         1.364459         0.108846         0.114374
 C         2.078424        -0.540855         1.442622
 C         3.614143        -0.370053         0.947371
 C         3.313675         0.390125        -0.210206
 C         3.732648         1.331835        -1.338566
 O         2.332536         2.039278        -1.280058
 C         2.129674         1.387068         0.057190
 O         2.320370        -0.466747        -0.942846
 H         0.056584        -1.305927        -0.520839
 H        -0.729634        -0.032616         0.644497
 H        -0.365182         0.519460        -1.037711
 H         1.912325         0.180726         2.272812
 H         1.797689        -1.570687         1.738624
 H         4.220258         0.166416         1.668046
 H         3.996725        -1.263965         0.654802
 H         4.419974         2.116595        -1.122528
 H         3.914459         0.807124        -2.258637
 H         2.293491         2.080964         0.942736
