19
Iteration:  2981
 C        -0.119571        -0.095838        -0.085368
 C         1.348462         0.022634         0.024658
 C         1.999684        -0.386299         1.484208
 C         3.573900        -0.117569         1.188104
 C         3.266677         0.353764        -0.217776
 C         3.752763         1.254901        -1.424125
 O         2.456414         1.873765        -1.431260
 C         2.131030         1.382156        -0.168104
 O         2.365672        -0.591446        -0.866194
 H        -0.449905         0.705829        -0.773953
 H        -0.141643        -1.008104        -0.598075
 H        -0.640022         0.038001         0.849569
 H         1.527072         0.151018         2.393192
 H         1.935105        -1.473395         1.617860
 H         4.153964         0.662441         1.736377
 H         3.995823        -1.178887         1.270777
 H         4.658766         1.977137        -1.169286
 H         3.937326         0.564704        -2.275548
 H         1.981920         2.177501         0.577242
