19
Iteration:  1904charge 0 multiplicity 1
 C        -0.094527        -0.208821        -0.006208
 C         1.325095         0.051259         0.047600
 C         2.017631        -0.570799         1.282584
 C         3.532957        -0.234503         1.019131
 C         3.316205         0.396321        -0.299167
 C         3.801810         1.399859        -1.349546
 O         2.483375         1.985472        -1.268389
 C         2.078361         1.397171         0.013591
 O         2.331019        -0.528931        -0.962662
 H        -0.499820        -1.053845        -0.482015
 H        -0.503048        -0.174871         0.996387
 H        -0.490383         0.613358        -0.618468
 H         1.476456        -0.231502         2.213382
 H         1.892881        -1.684101         1.245506
 H         4.040310         0.414823         1.754571
 H         4.153925        -1.222439         1.116618
 H         4.573373         2.127308        -0.966510
 H         4.123507         1.103872        -2.378563
 H         2.020327         2.141913         0.808699
