19
Iteration:  1145charge 0 multiplicity 1
 C        -0.071695        -0.216088        -0.191137
 C         1.384101         0.042587         0.058799
 C         2.152582        -0.651449         1.393874
 C         3.564317        -0.341398         1.011002
 C         3.281203         0.393182        -0.260086
 C         3.695397         1.300092        -1.363469
 O         2.411280         2.103308        -1.260736
 C         2.138873         1.402137         0.071361
 O         2.252836        -0.386730        -0.948159
 H        -0.247587        -1.220531        -0.576284
 H        -0.645917        -0.096444         0.741009
 H        -0.451257         0.547407        -0.886544
 H         1.634491        -0.084195         2.207308
 H         1.919056        -1.775395         1.490304
 H         4.021695         0.441365         1.619612
 H         4.220797        -1.190255         0.884085
 H         4.555957         1.927406        -0.856720
 H         3.968482         0.887246        -2.361417
 H         2.204303         2.062046         0.929295
