19
Iteration:  1243
 C        -0.077618        -0.160671        -0.222089
 C         1.349112         0.023584         0.090156
 C         2.074708        -0.577214         1.418496
 C         3.661404        -0.362382         0.965447
 C         3.262233         0.416696        -0.304714
 C         3.656572         1.373032        -1.342232
 O         2.399153         2.157022        -1.165451
 C         2.144017         1.398257         0.026196
 O         2.304924        -0.561611        -0.955258
 H        -0.199686        -1.281054        -0.151484
 H        -0.912752         0.444796         0.216509
 H        -0.056682         0.009231        -1.344533
 H         2.042591        -0.052860         2.377173
 H         1.728225        -1.617096         1.635523
 H         4.241530         0.108134         1.831207
 H         4.150554        -1.370883         0.844474
 H         4.608215         1.914430        -1.071867
 H         3.751649         1.064290        -2.356849
 H         2.078012         2.031407         0.872241
