19
Iteration:  3545
 C        -0.083802        -0.120272        -0.109290
 C         1.380118         0.190146         0.120677
 C         1.909333        -0.072566         1.565347
 C         3.454788         0.057486         1.357718
 C         3.278272         0.461368        -0.136998
 C         3.812089         1.001947        -1.483411
 O         2.548991         1.482283        -1.748172
 C         2.139743         1.410379        -0.369445
 O         2.335943        -0.633744        -0.649055
 H        -0.729060         0.808828        -0.069889
 H        -0.113458        -0.702053        -1.060247
 H        -0.324617        -0.861417         0.667755
 H         1.645192         0.640844         2.246642
 H         1.492166        -1.099959         1.911610
 H         3.673118         0.966232         1.852819
 H         4.082026        -0.792677         1.570345
 H         4.546058         1.820884        -1.505985
 H         4.265719         0.156088        -2.144934
 H         2.167263         2.431363         0.039778
