19
Iteration:  2560
 C        -0.104625        -0.246620        -0.098837
 C         1.432300         0.071771         0.110918
 C         2.049191        -0.554288         1.365743
 C         3.559530        -0.329293         0.997772
 C         3.269484         0.403173        -0.247310
 C         3.804820         1.377860        -1.311867
 O         2.385863         2.026219        -1.332583
 C         2.162321         1.434014        -0.051943
 O         2.271220        -0.489359        -0.915660
 H        -0.288407        -0.349694        -1.209753
 H        -0.375561        -1.258328         0.297223
 H        -0.698039         0.547257         0.264445
 H         1.780953         0.148788         2.268156
 H         1.609032        -1.525795         1.640546
 H         4.192954         0.297899         1.661158
 H         4.201655        -1.282257         0.890097
 H         4.577421         2.094002        -1.041591
 H         3.932367         0.809469        -2.228094
 H         2.022745         2.158496         0.747171
