19
Iteration:  4282
 C        -0.162846        -0.113540        -0.110292
 C         1.320612         0.138852         0.094865
 C         1.869157         0.260636         1.584984
 C         3.417005         0.263234         1.273467
 C         3.258212         0.413868        -0.188989
 C         3.937075         0.951048        -1.410765
 O         2.610833         1.343056        -1.838376
 C         2.108838         1.269433        -0.506198
 O         2.359384        -0.783485        -0.439517
 H        -0.221842        -1.117692        -0.468720
 H        -0.583867         0.016081         0.915682
 H        -0.571383         0.654159        -0.758202
 H         1.568074         1.217306         2.002898
 H         1.473793        -0.457477         2.190873
 H         3.971265         1.081958         1.718196
 H         4.093110        -0.622333         1.492990
 H         4.755447         1.745471        -1.039111
 H         4.332331         0.163476        -2.080382
 H         2.231626         2.234961         0.112348
