19
Iteration:  2734
 C        -0.224271        -0.141569        -0.032756
 C         1.412258        -0.030477         0.045108
 C         2.069158        -0.497322         1.369469
 C         3.531379        -0.249154         1.089396
 C         3.316772         0.378949        -0.298336
 C         3.805026         1.418736        -1.285324
 O         2.446942         2.056813        -1.364526
 C         2.167170         1.335951        -0.095066
 O         2.245299        -0.643289        -0.941194
 H        -0.774019         0.862667        -0.084428
 H        -0.332356        -0.878171        -0.897418
 H        -0.414167        -0.587640         0.925682
 H         1.804211        -0.020860         2.340197
 H         1.984546        -1.568034         1.280184
 H         4.025401         0.580054         1.672264
 H         4.192953        -1.187501         1.158164
 H         4.477572         2.350854        -0.909037
 H         4.364704         1.184651        -2.249731
 H         2.206514         2.164522         0.632012
