19
Iteration:  1021
 C        -0.119339        -0.189679        -0.065193
 C         1.422926        -0.056696         0.025796
 C         2.063166        -0.605734         1.347236
 C         3.593151        -0.305299         0.963076
 C         3.217487         0.384576        -0.285392
 C         3.779241         1.416052        -1.282127
 O         2.471355         2.068691        -1.217611
 C         2.115741         1.405962         0.033292
 O         2.260027        -0.482483        -1.025175
 H        -0.621463        -1.089217         0.374428
 H        -0.628091         0.679265         0.447942
 H        -0.397285        -0.176832        -1.147815
 H         1.745321        -0.190424         2.327396
 H         1.821325        -1.687725         1.382920
 H         4.020447         0.499502         1.600824
 H         4.328636        -1.130305         0.712379
 H         4.511105         2.182969        -0.804143
 H         4.181235         1.023386        -2.264253
 H         2.013827         2.026078         0.904195
