19
Iteration:  1627
 C        -0.108340        -0.200670        -0.063173
 C         1.387217         0.003749         0.013358
 C         2.120750        -0.560331         1.328566
 C         3.556355        -0.371763         1.025284
 C         3.280618         0.470990        -0.261980
 C         3.782852         1.381082        -1.320401
 O         2.374306         2.053730        -1.306431
 C         2.102268         1.389037        -0.009567
 O         2.332805        -0.474875        -0.943396
 H        -0.566518        -1.091880         0.412857
 H        -0.408568         0.508705         0.726937
 H        -0.619377         0.126465        -0.953071
 H         1.505133        -0.270933         2.157889
 H         1.943167        -1.625933         1.254575
 H         4.207851         0.195413         1.784549
 H         4.145701        -1.313989         0.772575
 H         4.541075         2.081529        -0.830160
 H         4.054475         0.834804        -2.215095
 H         1.969353         2.059604         0.827727
