19
Iteration:  1237
 C        -0.108964        -0.185630        -0.241462
 C         1.357894         0.068007         0.038757
 C         2.137797        -0.559798         1.391467
 C         3.694278        -0.406874         0.981018
 C         3.244227         0.411028        -0.311180
 C         3.706384         1.381222        -1.324411
 O         2.367952         2.140562        -1.132942
 C         2.134825         1.382363         0.014036
 O         2.283880        -0.568300        -0.951551
 H        -0.483742        -1.188211        -0.072836
 H        -0.801400         0.488238         0.224339
 H        -0.237354         0.038197        -1.284256
 H         1.993081         0.141181         2.281896
 H         1.801969        -1.532162         1.707869
 H         4.169109         0.335841         1.614930
 H         4.160935        -1.384296         1.068462
 H         4.516740         2.023948        -0.911887
 H         3.887121         0.961708        -2.348730
 H         2.110420         1.983437         0.987164
