19
Iteration:  1060
 C        -0.146248        -0.278453        -0.112158
 C         1.350357         0.079581         0.119037
 C         2.035549        -0.703008         1.305605
 C         3.577813        -0.368382         0.963262
 C         3.290398         0.464022        -0.252300
 C         3.769853         1.376788        -1.313611
 O         2.435650         2.016417        -1.312366
 C         2.159063         1.475559         0.086497
 O         2.309381        -0.399866        -0.935207
 H        -0.446679        -1.297151         0.143190
 H        -0.581627         0.458865         0.517047
 H        -0.470950         0.018032        -1.108710
 H         1.571944        -0.304152         2.233333
 H         1.801966        -1.775767         1.178098
 H         4.137906         0.196413         1.729967
 H         4.264613        -1.147362         0.730310
 H         4.533107         2.037439        -0.985962
 H         3.933591         1.150187        -2.325352
 H         2.438598         2.355208         0.787190
