19
Iteration:  4454
 C        -0.082739        -0.266906        -0.119704
 C         1.318427         0.178644         0.066203
 C         1.900439         0.236594         1.565154
 C         3.452475         0.305520         1.395884
 C         3.296653         0.336741        -0.207557
 C         3.870357         0.760879        -1.513975
 O         2.597021         1.552416        -1.771356
 C         2.163014         1.403677        -0.437951
 O         2.279840        -0.747648        -0.472768
 H        -0.442637        -0.601202         0.870971
 H        -0.576744         0.671838        -0.472885
 H        -0.068167        -1.052460        -0.847840
 H         1.309747         1.079626         2.079609
 H         1.543427        -0.728456         2.037732
 H         3.878638         1.163683         1.819395
 H         3.979738        -0.606881         1.712300
 H         4.799734         1.501132        -1.491093
 H         3.981773        -0.024695        -2.279367
 H         2.092376         2.342630        -0.009150
