19
Iteration:  2779
 C        -0.060629        -0.252298        -0.189882
 C         1.344922         0.071360         0.075091
 C         2.051960        -0.466762         1.451051
 C         3.581734        -0.293194         1.072950
 C         3.327310         0.473619        -0.267637
 C         3.726553         1.262511        -1.391799
 O         2.406955         2.017661        -1.314742
 C         2.175696         1.423147        -0.025591
 O         2.258581        -0.526322        -0.887380
 H        -0.656376         0.601427         0.210857
 H        -0.135742        -0.126482        -1.323559
 H        -0.454588        -1.133552         0.282378
 H         1.768144         0.176109         2.308722
 H         1.773512        -1.540724         1.515651
 H         4.162473         0.180429         1.955996
 H         4.057259        -1.268246         0.848156
 H         4.675478         1.954413        -1.231339
 H         3.883834         0.741764        -2.397993
 H         2.050486         2.041265         0.868533
