19
Iteration:  4704
 C        -0.124093        -0.024140        -0.129059
 C         1.381609         0.064963         0.108975
 C         1.832918         0.180333         1.631209
 C         3.416727         0.348086         1.345092
 C         3.297379         0.329129        -0.167910
 C         3.879019         0.931697        -1.578568
 O         2.597293         1.470103        -1.803735
 C         2.105207         1.276506        -0.442308
 O         2.371737        -0.868959        -0.461652
 H        -0.659795        -0.579537         0.702465
 H        -0.421817         1.072243        -0.256848
 H        -0.303495        -0.514676        -1.070718
 H         1.225459         1.032549         1.911847
 H         1.768486        -0.587622         2.362025
 H         4.017583         1.173793         1.805021
 H         4.063924        -0.545334         1.560544
 H         4.666043         1.567046        -1.305551
 H         4.153069         0.332298        -2.409474
 H         2.072799         2.222244         0.226983
