19
Iteration:  3710charge 0 multiplicity 1
 C        -0.137987        -0.063986        -0.124111
 C         1.319576         0.105036         0.141845
 C         1.863663         0.079577         1.594545
 C         3.408394         0.238914         1.298817
 C         3.321204         0.321080        -0.239893
 C         3.971698         0.937027        -1.443158
 O         2.499506         1.541730        -1.817690
 C         2.183436         1.353602        -0.440299
 O         2.363828        -0.816225        -0.479825
 H        -0.340417        -0.427250        -1.126859
 H        -0.495494        -0.846090         0.594664
 H        -0.430276         0.955938         0.076886
 H         1.529212         0.847125         2.237910
 H         1.561690        -0.939135         2.076163
 H         3.794806         1.128343         1.726749
 H         3.973352        -0.584554         1.612441
 H         4.519283         1.815314        -1.011048
 H         4.600086         0.614544        -2.346571
 H         1.865025         2.247279        -0.046164
