19
Iteration:  2039charge 0 multiplicity 1
 C        -0.119485        -0.208870        -0.074251
 C         1.364076         0.109889         0.146463
 C         2.051346        -0.660372         1.303773
 C         3.564764        -0.316370         1.087115
 C         3.275885         0.439510        -0.219281
 C         3.834771         1.351290        -1.337827
 O         2.416637         1.945769        -1.379179
 C         2.152539         1.412914        -0.012985
 O         2.256418        -0.417117        -0.922134
 H        -0.102780        -1.248557        -0.436765
 H        -0.593864         0.068234         0.862226
 H        -0.612270         0.318725        -0.864198
 H         1.575298        -0.362108         2.250578
 H         1.795255        -1.744845         1.180164
 H         4.095829         0.502000         1.767295
 H         4.353633        -1.092232         0.824601
 H         4.540674         2.258872        -1.216235
 H         3.983167         1.169630        -2.422237
 H         2.252007         2.241510         0.654735
