19
Iteration:  4557
 C        -0.073039        -0.088155        -0.114104
 C         1.320550         0.232990         0.118953
 C         1.887924         0.134092         1.583842
 C         3.502176         0.307718         1.394851
 C         3.281772         0.476749        -0.123458
 C         3.915493         0.853727        -1.454500
 O         2.580215         1.309920        -1.903278
 C         2.078260         1.374089        -0.514623
 O         2.273596        -0.786387        -0.458567
 H        -0.082928        -1.169663        -0.404131
 H        -0.551714        -0.051920         0.920372
 H        -0.565235         0.488099        -0.978714
 H         1.729948         0.954409         2.345518
 H         1.427086        -0.831880         1.870766
 H         4.002401         1.225212         1.939310
 H         4.040170        -0.627336         1.654928
 H         4.691069         1.650730        -1.339370
 H         4.269922         0.105981        -2.201403
 H         1.968456         2.461199        -0.221857
