19
Iteration:   399
 C        -0.082709        -0.244981        -0.097503
 C         1.355073         0.107615         0.082760
 C         1.993837        -0.695332         1.282392
 C         3.604941        -0.385008         0.992617
 C         3.338544         0.413654        -0.237482
 C         3.738170         1.433534        -1.346003
 O         2.439521         2.051931        -1.395674
 C         2.107310         1.459876        -0.015669
 O         2.298321        -0.407675        -0.775876
 H        -0.091616        -1.081863        -0.874134
 H        -0.293216        -0.691384         0.927664
 H        -0.793129         0.567594        -0.306452
 H         1.840106        -0.361633         2.315799
 H         1.720427        -1.758015         1.150916
 H         3.920266         0.136422         1.802779
 H         3.928217        -1.391396         0.769615
 H         4.544567         2.042680        -0.917426
 H         4.162176         1.090158        -2.280739
 H         2.139763         2.183993         0.715639
