19
Iteration:  1642charge 0 multiplicity 1
 C        -0.088377        -0.162678        -0.039786
 C         1.360948        -0.024901         0.045890
 C         1.998923        -0.579025         1.410343
 C         3.612263        -0.247250         0.966152
 C         3.274587         0.391129        -0.291068
 C         3.717989         1.417784        -1.304184
 O         2.487770         2.071123        -1.220254
 C         2.061985         1.318055        -0.024703
 O         2.336323        -0.536429        -1.030775
 H        -0.268000        -1.267336        -0.116327
 H        -0.544629         0.528628         0.774523
 H        -0.447407         0.162815        -1.059854
 H         1.925322         0.114348         2.262559
 H         1.746415        -1.636261         1.652258
 H         4.122663         0.405808         1.701564
 H         4.172445        -1.261454         0.827928
 H         4.554992         2.062321        -1.199762
 H         3.898079         1.094856        -2.368066
 H         1.940951         1.988850         0.880589
