19
Iteration:  1868charge 0 multiplicity 1
 C        -0.141133        -0.152885        -0.180135
 C         1.406389        -0.028229         0.073271
 C         2.081678        -0.513529         1.398600
 C         3.650582        -0.269053         1.013497
 C         3.301228         0.290799        -0.316854
 C         3.770194         1.461390        -1.326578
 O         2.457873         2.048208        -1.279415
 C         2.054837         1.375284         0.015265
 O         2.231270        -0.593077        -0.918057
 H        -0.336611        -1.075444        -0.771292
 H        -0.660042        -0.082812         0.823374
 H        -0.354822         0.797481        -0.627151
 H         1.762825         0.028596         2.367955
 H         1.834186        -1.652260         1.422847
 H         4.152318         0.484154         1.604358
 H         4.139084        -1.214914         0.929596
 H         4.437181         2.088312        -0.750701
 H         4.092083         1.394881        -2.388807
 H         1.966836         2.083810         0.914860
