19
Iteration:  3849
 C        -0.167407        -0.076231        -0.055796
 C         1.353271         0.149450         0.088165
 C         1.871440         0.099643         1.586959
 C         3.382557         0.349218         1.340115
 C         3.314889         0.306783        -0.127815
 C         3.876202         0.957134        -1.471876
 O         2.628586         1.407229        -1.866877
 C         2.221522         1.419262        -0.524859
 O         2.310707        -0.839942        -0.461947
 H        -0.888373        -0.069734         0.704382
 H        -0.617799         0.565596        -0.836701
 H        -0.355216        -1.102206        -0.414330
 H         1.425288         0.844801         2.218140
 H         1.694896        -0.925936         2.017066
 H         3.868141         1.302285         1.679636
 H         3.997513        -0.531194         1.758891
 H         4.629763         1.736134        -1.199743
 H         4.435638         0.219910        -2.155039
 H         2.105281         2.494854        -0.042952
