19
Iteration:   525charge 0 multiplicity 1
 C        -0.074524        -0.252679        -0.074475
 C         1.363253         0.019962         0.155752
 C         2.045494        -0.691396         1.305577
 C         3.572972        -0.325800         0.945259
 C         3.244953         0.399047        -0.294795
 C         3.801730         1.428391        -1.337015
 O         2.457704         2.050525        -1.285091
 C         2.112117         1.476849         0.047245
 O         2.283104        -0.405532        -0.936923
 H        -0.475112        -1.176994         0.270372
 H        -0.615470         0.487400         0.486626
 H        -0.343831        -0.203177        -1.122943
 H         1.528326        -0.479092         2.229796
 H         1.809309        -1.795737         1.188006
 H         4.109093         0.228561         1.754361
 H         4.236022        -1.199055         0.753340
 H         4.701873         2.066787        -1.006260
 H         3.939264         0.889716        -2.302729
 H         2.011947         2.323323         0.824165
