19
Iteration:  3899
 C        -0.029340        -0.258995        -0.220075
 C         1.335086         0.149993         0.153181
 C         1.887884         0.256530         1.573536
 C         3.473002         0.217595         1.409063
 C         3.286836         0.461260        -0.119844
 C         3.887006         0.696392        -1.547051
 O         2.539432         1.513312        -1.841115
 C         2.152960         1.480058        -0.459780
 O         2.304483        -0.704042        -0.433074
 H        -0.720246        -0.690706         0.609815
 H        -0.678467         0.573758        -0.435813
 H        -0.107282        -1.009932        -1.043878
 H         1.470332         1.207292         2.119663
 H         1.499625        -0.635561         2.060624
 H         3.914897         0.933640         2.074038
 H         3.800836        -0.808318         1.560649
 H         4.788976         1.340939        -1.516128
 H         4.032370        -0.188221        -2.078493
 H         2.128407         2.382664         0.058147
