19
Iteration:  4433charge 0 multiplicity 1
 C        -0.090769        -0.178899        -0.057047
 C         1.332435         0.215514         0.160166
 C         1.842034         0.157387         1.600683
 C         3.373819         0.182728         1.308333
 C         3.295283         0.471161        -0.161280
 C         3.858256         0.839089        -1.425112
 O         2.605124         1.370084        -1.909598
 C         2.135984         1.388785        -0.444632
 O         2.430770        -0.632468        -0.541647
 H        -0.569039        -0.467798         0.889617
 H        -0.734804         0.726226        -0.402766
 H        -0.086129        -1.027605        -0.716211
 H         1.534588         1.029053         2.294223
 H         1.540202        -0.829134         2.010712
 H         3.695989         1.019486         1.867129
 H         3.932937        -0.777007         1.418960
 H         4.726343         1.472390        -1.516678
 H         4.039730        -0.092297        -1.953900
 H         1.938296         2.320543         0.039162
