19
Iteration:   269
 C        -0.149796        -0.214878        -0.122879
 C         1.338281         0.029160         0.125786
 C         2.066732        -0.652552         1.264555
 C         3.568288        -0.386404         0.911421
 C         3.282382         0.428692        -0.295543
 C         3.757656         1.526349        -1.323170
 O         2.454163         2.110205        -1.221945
 C         2.147519         1.384374         0.077548
 O         2.325302        -0.531853        -0.943865
 H        -0.736133         0.044022         0.817517
 H        -0.676213         0.381493        -0.893899
 H        -0.247722        -1.286684        -0.262134
 H         1.801707        -0.106678         2.155792
 H         1.857908        -1.770651         1.267829
 H         3.986164         0.159675         1.758896
 H         4.265615        -1.292162         0.684968
 H         4.512010         2.174288        -0.734641
 H         4.176384         1.100555        -2.272162
 H         2.002697         2.076338         0.969167
