19
Iteration:  3625
 C        -0.084790        -0.213425        -0.165890
 C         1.312637         0.157085         0.121217
 C         1.895723         0.130964         1.557779
 C         3.442594         0.196829         1.315091
 C         3.250453         0.284924        -0.279095
 C         3.814352         0.927457        -1.527678
 O         2.605460         1.676963        -1.722652
 C         2.208400         1.354935        -0.248891
 O         2.336166        -0.777460        -0.530544
 H        -0.479948        -0.975685         0.518507
 H        -0.869979         0.504390        -0.365110
 H        -0.062253        -0.851219        -1.030415
 H         1.691161         1.067258         2.095699
 H         1.493580        -0.648663         2.140472
 H         3.923484         1.052094         1.805069
 H         3.948030        -0.708609         1.630143
 H         4.756408         1.517194        -1.424695
 H         3.850668         0.283074        -2.331110
 H         2.163110         2.388426         0.233404
