19
Iteration:   212charge 0 multiplicity 1
 C        -0.162870        -0.216845        -0.119852
 C         1.349838         0.069752         0.036021
 C         2.093683        -0.630366         1.327586
 C         3.650535        -0.461792         0.943618
 C         3.325634         0.386486        -0.276952
 C         3.713593         1.483100        -1.304188
 O         2.366293         2.083763        -1.118899
 C         2.141235         1.360847         0.039739
 O         2.358484        -0.406957        -1.028353
 H        -0.769979         0.703356        -0.429212
 H        -0.355650        -0.965917        -0.911066
 H        -0.796554        -0.511317         0.741623
 H         1.812566        -0.191358         2.311381
 H         1.755444        -1.701641         1.341468
 H         4.143360         0.113680         1.742120
 H         4.236551        -1.444629         0.686818
 H         4.554948         2.219459        -0.994272
 H         4.008535         1.162542        -2.324588
 H         2.022679         2.005578         0.934114
