19
Iteration:  2323
 C        -0.112419        -0.070603        -0.098135
 C         1.400389         0.002682         0.042320
 C         2.115851        -0.489747         1.430471
 C         3.538861        -0.277060         0.967065
 C         3.293666         0.396051        -0.330068
 C         3.763761         1.442058        -1.234616
 O         2.388658         1.960547        -1.295492
 C         2.156565         1.289872        -0.028427
 O         2.288788        -0.606957        -0.948844
 H        -0.297774        -0.647288        -1.069237
 H        -0.793153        -0.528690         0.693710
 H        -0.549373         0.873625        -0.346933
 H         1.738951        -0.010057         2.422350
 H         1.816724        -1.592949         1.518724
 H         4.209910         0.379246         1.621374
 H         4.244604        -1.006128         0.697391
 H         4.380870         2.136196        -0.652688
 H         4.152734         1.276597        -2.237545
 H         1.923185         2.040234         0.769256
