19
Iteration:  2911
 C        -0.175616        -0.253270        -0.185460
 C         1.387300         0.074736         0.135255
 C         2.051694        -0.384992         1.458781
 C         3.537452        -0.281791         1.091054
 C         3.317756         0.492188        -0.174957
 C         3.782958         1.238722        -1.393043
 O         2.498924         1.904572        -1.434555
 C         2.129761         1.448109        -0.068475
 O         2.280635        -0.508575        -0.850244
 H        -0.195138        -1.150014        -0.843021
 H        -0.592367        -0.691407         0.768896
 H        -0.609290         0.539855        -0.788966
 H         1.649769         0.354667         2.160002
 H         1.705772        -1.407120         1.871651
 H         4.169256         0.407833         1.708137
 H         4.042737        -1.144843         0.815725
 H         4.643801         1.948677        -1.293417
 H         3.729504         0.713051        -2.389786
 H         2.155654         2.194945         0.684553
