19
Iteration:  4525
 C        -0.145693        -0.152681        -0.150253
 C         1.372017         0.209253         0.148059
 C         1.827887         0.158044         1.643021
 C         3.423364         0.265851         1.420436
 C         3.299379         0.451844        -0.137765
 C         3.942835         0.842377        -1.564368
 O         2.510003         1.299841        -1.857418
 C         2.170521         1.364322        -0.462758
 O         2.404650        -0.666576        -0.516855
 H        -0.350958        -1.219120         0.143663
 H        -0.688991         0.538987         0.601420
 H        -0.507911         0.118422        -1.207231
 H         1.658680         1.002114         2.313909
 H         1.468719        -0.801653         2.082531
 H         3.867109         1.163239         2.052135
 H         3.823791        -0.729305         1.667874
 H         4.627387         1.605892        -1.494637
 H         4.181720         0.109706        -2.340010
 H         2.155846         2.488347        -0.101443
