19
Iteration:   480charge 0 multiplicity 1
 C        -0.076281        -0.167875        -0.157197
 C         1.349719        -0.013168         0.130539
 C         1.999902        -0.578872         1.401913
 C         3.588280        -0.369469         0.918466
 C         3.272294         0.399341        -0.309921
 C         3.736130         1.476116        -1.426136
 O         2.411932         2.101483        -1.232121
 C         2.149331         1.336012         0.039803
 O         2.361791        -0.524804        -0.873593
 H        -0.406612        -1.011841        -0.694825
 H        -0.751371        -0.248747         0.656525
 H        -0.416260         0.603337        -0.829173
 H         1.861728        -0.104814         2.379601
 H         1.590359        -1.604185         1.461499
 H         4.218806         0.225514         1.645394
 H         4.119259        -1.277529         0.870646
 H         4.513256         2.125453        -0.909748
 H         4.036234         1.128798        -2.464106
 H         2.169072         2.059920         0.901237
