19
Iteration:  2607
 C        -0.115541        -0.125844        -0.050867
 C         1.360326         0.043696         0.083476
 C         2.072185        -0.596043         1.320473
 C         3.603099        -0.272810         0.993657
 C         3.280873         0.479481        -0.244855
 C         3.728244         1.347037        -1.273943
 O         2.433989         2.018817        -1.359171
 C         2.084352         1.374857        -0.046894
 O         2.325552        -0.559662        -0.953567
 H        -0.320071        -0.617717        -1.017908
 H        -0.402125        -0.921114         0.725825
 H        -0.553324         0.911660         0.031667
 H         1.705601        -0.250165         2.314165
 H         1.924186        -1.748148         1.442113
 H         3.962803         0.286740         1.938416
 H         4.278063        -1.085003         0.989133
 H         4.415929         2.116441        -0.758509
 H         4.094568         0.849390        -2.260081
 H         2.123504         2.213970         0.710826
