19
Iteration:   348
 C        -0.098503        -0.149754        -0.184256
 C         1.394078        -0.030709         0.042664
 C         2.111558        -0.541390         1.363697
 C         3.636632        -0.343000         0.991874
 C         3.253643         0.297212        -0.353205
 C         3.730070         1.474556        -1.276615
 O         2.413643         2.110951        -1.167351
 C         2.081128         1.379277        -0.007482
 O         2.285562        -0.602947        -0.956749
 H        -0.432204        -1.139589        -0.216138
 H        -0.602431         0.428641         0.554417
 H        -0.230774         0.369522        -1.122205
 H         1.916609         0.179511         2.188684
 H         1.770257        -1.501125         1.653104
 H         3.911367         0.514578         1.749101
 H         4.277685        -1.170079         0.911958
 H         4.570585         2.001174        -0.761137
 H         4.031641         1.256327        -2.340738
 H         1.841316         1.998105         0.939590
