19
Iteration:  3347
 C        -0.084057        -0.358363        -0.210641
 C         1.359058         0.182397         0.096398
 C         1.950345        -0.064840         1.661398
 C         3.505683        -0.077368         1.327193
 C         3.242063         0.420319        -0.227640
 C         3.849844         0.938002        -1.562430
 O         2.552881         1.801060        -1.682625
 C         2.161884         1.523968        -0.221365
 O         2.292732        -0.594999        -0.636657
 H        -0.263447        -1.088759         0.533809
 H        -0.772906         0.460656        -0.120308
 H        -0.134156        -0.833585        -1.221311
 H         1.728125         0.671165         2.437618
 H         1.313326        -1.032566         1.982175
 H         4.055744         0.605356         1.973566
 H         3.900622        -1.055820         1.417088
 H         4.651695         1.581979        -1.687086
 H         3.778148         0.270453        -2.459900
 H         1.947962         2.456049         0.388358
