19
Iteration:  2040
 C        -0.122450        -0.209957        -0.076738
 C         1.370865         0.111618         0.151160
 C         2.054036        -0.660724         1.303790
 C         3.562243        -0.317256         1.085256
 C         3.281861         0.446610        -0.214483
 C         3.839417         1.348883        -1.332903
 O         2.414056         1.946780        -1.382574
 C         2.148679         1.413668        -0.009832
 O         2.247282        -0.419704        -0.929431
 H        -0.108590        -1.263142        -0.463426
 H        -0.595070         0.037275         0.892406
 H        -0.607221         0.331918        -0.882063
 H         1.584487        -0.334584         2.203823
 H         1.828820        -1.754500         1.240457
 H         4.094663         0.471431         1.768003
 H         4.337758        -1.064155         0.837210
 H         4.547470         2.238585        -1.225320
 H         3.983405         1.168215        -2.418209
 H         2.279073         2.247414         0.659211
