19
Iteration:  4241charge 0 multiplicity 1
 C        -0.183983        -0.112307        -0.127036
 C         1.332856         0.179288         0.084485
 C         1.870666         0.150956         1.574928
 C         3.383630         0.370776         1.344180
 C         3.266098         0.373144        -0.164647
 C         3.955454         0.834641        -1.498623
 O         2.585970         1.408803        -1.839784
 C         2.198851         1.285437        -0.451513
 O         2.383943        -0.763108        -0.448643
 H        -0.386099        -1.118476        -0.488489
 H        -0.696285         0.097410         0.904456
 H        -0.691695         0.609319        -0.777204
 H         1.579994         1.054790         2.227096
 H         1.567331        -0.818747         2.076363
 H         3.722345         1.267944         1.931528
 H         4.001835        -0.414636         1.830401
 H         4.574543         1.712169        -1.517539
 H         4.275279         0.048718        -2.221028
 H         2.206251         2.320967        -0.006157
