19
Iteration:  2640
 C        -0.115039        -0.169818        -0.219754
 C         1.425214         0.021202         0.122673
 C         2.045632        -0.455111         1.454671
 C         3.639073        -0.307291         1.014352
 C         3.315435         0.383777        -0.302200
 C         3.661463         1.403534        -1.455585
 O         2.444612         2.092303        -1.166817
 C         2.157033         1.283239        -0.037729
 O         2.265534        -0.595883        -0.944894
 H        -0.268081        -0.519353        -1.241235
 H        -0.517793        -0.995719         0.444113
 H        -0.789330         0.734935        -0.000535
 H         1.834686         0.312023         2.195971
 H         1.803242        -1.556225         1.696051
 H         3.864143         0.477101         1.798235
 H         4.168933        -1.204918         1.161239
 H         4.456727         2.032350        -1.117728
 H         4.009861         1.010369        -2.435853
 H         2.077220         1.956437         0.862677
