19
Iteration:  4651
 C        -0.073507        -0.205892        -0.145903
 C         1.304226         0.217680         0.208193
 C         1.897749         0.198678         1.675002
 C         3.388887         0.226283         1.284973
 C         3.333738         0.493688        -0.146544
 C         3.966397         0.803450        -1.507656
 O         2.612343         1.323561        -1.880467
 C         2.096736         1.374969        -0.412019
 O         2.252883        -0.635781        -0.541760
 H        -0.267336        -1.252619        -0.179823
 H        -0.672601         0.240318         0.705590
 H        -0.305857         0.269806        -1.056180
 H         1.455683         1.003499         2.358912
 H         1.777069        -0.681475         2.262819
 H         3.897897         1.007339         1.817101
 H         3.961354        -0.706750         1.526668
 H         4.720293         1.563898        -1.624297
 H         4.213717        -0.129375        -1.987011
 H         1.954765         2.456005        -0.055455
