19
Iteration:  4890charge 0 multiplicity 1
 C        -0.007366        -0.195848        -0.152307
 C         1.373652         0.188861         0.182352
 C         1.797554         0.196505         1.654633
 C         3.361040         0.200580         1.366935
 C         3.311394         0.444947        -0.166559
 C         3.782556         0.838126        -1.644910
 O         2.596894         1.459530        -1.847079
 C         2.204662         1.414588        -0.459257
 O         2.331306        -0.736634        -0.412569
 H        -0.000730        -1.250756        -0.115291
 H        -0.884753         0.233644         0.419136
 H        -0.299348         0.019111        -1.187764
 H         1.774412         1.142482         2.187087
 H         1.499299        -0.557914         2.325869
 H         3.906180         0.857731         2.023063
 H         3.847268        -0.806689         1.532150
 H         4.764383         1.523211        -1.611627
 H         4.031736        -0.061551        -2.255732
 H         2.178141         2.365320        -0.042048
