19
Iteration:  4712charge 0 multiplicity 1
 C        -0.087681        -0.069836        -0.146450
 C         1.368423         0.054360         0.121193
 C         1.860389         0.192670         1.661288
 C         3.462334         0.337846         1.393298
 C         3.286832         0.325289        -0.165353
 C         3.850750         0.820847        -1.517491
 O         2.581007         1.555291        -1.803708
 C         2.118720         1.254911        -0.463276
 O         2.365007        -0.810668        -0.529138
 H        -0.742293        -0.457320         0.721722
 H        -0.449737         0.909925        -0.369142
 H        -0.407739        -0.582862        -1.071115
 H         1.512408         1.167014         1.900306
 H         1.764687        -0.644841         2.415480
 H         3.739509         1.339059         1.804922
 H         3.910455        -0.573356         1.748404
 H         4.691179         1.639929        -1.516261
 H         4.083463         0.146134        -2.384131
 H         1.999614         2.221706        -0.032729
