19
Iteration:   343charge 0 multiplicity 1
 C        -0.113304        -0.140767        -0.193177
 C         1.384328         0.009580         0.060000
 C         2.099837        -0.525389         1.381540
 C         3.617610        -0.292502         0.964971
 C         3.279908         0.317922        -0.346710
 C         3.719502         1.462338        -1.292853
 O         2.415330         2.137337        -1.167115
 C         2.079051         1.357700         0.028904
 O         2.296505        -0.652301        -0.965051
 H        -0.358134        -1.263535        -0.192561
 H        -0.735069         0.547097         0.455094
 H        -0.141345         0.178978        -1.273260
 H         1.971598         0.027900         2.317568
 H         1.717045        -1.590027         1.511638
 H         4.154282         0.231864         1.732759
 H         4.296272        -1.219376         0.971502
 H         4.530586         1.961797        -0.718665
 H         3.930455         1.253650        -2.329882
 H         1.984487         1.949619         0.900666
