19
Iteration:   105
 C        -0.144434        -0.193692        -0.038200
 C         1.391704         0.037116        -0.004146
 C         2.064064        -0.747821         1.216371
 C         3.619972        -0.481716         0.857586
 C         3.309835         0.492274        -0.210482
 C         3.737917         1.609801        -1.171701
 O         2.354342         2.098561        -1.179393
 C         2.157571         1.333957         0.078894
 O         2.297589        -0.477225        -1.065673
 H        -0.460483        -1.258141        -0.335851
 H        -0.295210         0.046559         1.017132
 H        -0.544057         0.632117        -0.607564
 H         1.964262        -0.196996         2.164003
 H         1.819108        -1.895486         1.270934
 H         4.102283        -0.129865         1.768369
 H         4.150780        -1.460040         0.503942
 H         4.464377         2.391716        -0.799836
 H         4.092381         1.254314        -2.217162
 H         2.177071         2.186131         0.905777
