19
Iteration:  4717charge 0 multiplicity 1
 C        -0.097600        -0.101243        -0.159050
 C         1.348788         0.040169         0.127629
 C         1.906228         0.209783         1.639104
 C         3.448815         0.321007         1.388864
 C         3.289439         0.332199        -0.186670
 C         3.853476         0.790929        -1.500610
 O         2.568605         1.574964        -1.806762
 C         2.145828         1.273069        -0.451318
 O         2.368255        -0.780198        -0.543659
 H        -0.686878        -0.421137         0.666596
 H        -0.521613         0.948384        -0.340214
 H        -0.319795        -0.725914        -1.027988
 H         1.625433         1.177317         2.200454
 H         1.497291        -0.571848         2.269983
 H         3.768882         1.284235         1.759711
 H         3.973053        -0.507883         1.951421
 H         4.579571         1.525280        -1.513745
 H         4.026801        -0.046509        -2.166964
 H         1.884567         2.305388        -0.001817
