19
Iteration:  2918charge 0 multiplicity 1
 C        -0.104123        -0.252417        -0.218579
 C         1.368686         0.068113         0.141725
 C         2.067274        -0.404130         1.462422
 C         3.548466        -0.288462         1.085169
 C         3.243104         0.478493        -0.200187
 C         3.769710         1.207223        -1.422704
 O         2.485838         1.937825        -1.405549
 C         2.132923         1.462225        -0.083277
 O         2.295736        -0.520198        -0.783836
 H        -0.123269        -0.935398        -1.102370
 H        -0.754654        -0.702351         0.556001
 H        -0.762544         0.538260        -0.661602
 H         1.845915         0.473630         2.081826
 H         1.811038        -1.280070         1.952365
 H         4.136889         0.331974         1.717954
 H         4.070288        -1.256834         0.880926
 H         4.561366         1.900195        -1.304496
 H         3.808649         0.734812        -2.382334
 H         2.136764         2.364692         0.615723
