19
Iteration:   581charge 0 multiplicity 1
 C        -0.072868        -0.231524        -0.216464
 C         1.389972        -0.050577         0.060265
 C         2.153076        -0.464468         1.454753
 C         3.592753        -0.339033         0.959967
 C         3.242685         0.391386        -0.326790
 C         3.691392         1.360891        -1.338613
 O         2.403735         2.118250        -1.162633
 C         2.127078         1.312204         0.115301
 O         2.257903        -0.467739        -1.034337
 H        -0.551766        -1.037044         0.248381
 H        -0.601157         0.600459         0.143138
 H        -0.371728        -0.197585        -1.228229
 H         1.826269         0.280139         2.114984
 H         1.993722        -1.546569         1.686889
 H         3.978951         0.210849         1.787132
 H         4.156582        -1.260932         0.605521
 H         4.618601         1.965277        -0.914539
 H         4.001670         0.952845        -2.301780
 H         2.414730         1.986319         1.001996
