19
Iteration:    51charge 0 multiplicity 1
 C        -0.167977        -0.243701        -0.224007
 C         1.351601         0.010943         0.091911
 C         2.108870        -0.743664         1.262739
 C         3.626639        -0.400182         0.843254
 C         3.246115         0.460127        -0.360882
 C         3.715445         1.497891        -1.393220
 O         2.484820         2.330457        -0.928020
 C         2.165296         1.340332         0.137213
 O         2.246615        -0.552710        -0.947793
 H        -0.523858        -1.048317         0.541169
 H        -0.828007         0.636782        -0.219495
 H        -0.133180        -0.754183        -1.191293
 H         1.877001        -0.322361         2.255279
 H         1.850085        -1.890229         1.207311
 H         4.104432         0.147413         1.641748
 H         4.224356        -1.360877         0.612865
 H         4.671248         2.022519        -1.211935
 H         3.787253         1.302097        -2.531325
 H         2.259274         1.882060         1.128760
