19
Iteration:  3557
 C        -0.034753        -0.133465        -0.093344
 C         1.367339         0.219764         0.061741
 C         1.907557        -0.087317         1.547798
 C         3.423813         0.119264         1.356697
 C         3.315426         0.423515        -0.181644
 C         3.891486         0.988620        -1.452449
 O         2.501539         1.411154        -1.819950
 C         2.119645         1.456680        -0.311123
 O         2.327650        -0.598184        -0.572463
 H        -0.748598         0.679904         0.272442
 H        -0.323364        -0.190500        -1.174153
 H        -0.326946        -1.006668         0.445035
 H         1.365543         0.454296         2.254380
 H         1.692454        -1.219753         1.738381
 H         3.997586         0.741961         1.965192
 H         3.975438        -0.799830         1.408146
 H         4.576715         1.822304        -1.230714
 H         4.164540         0.312009        -2.307023
 H         2.024623         2.441042         0.261422
