19
Iteration:  2849
 C        -0.195699        -0.098368        -0.126550
 C         1.339332        -0.014676         0.106044
 C         2.109378        -0.443955         1.426890
 C         3.587532        -0.166105         1.105744
 C         3.291435         0.307484        -0.319016
 C         3.857824         1.352312        -1.354485
 O         2.449617         1.956382        -1.341172
 C         2.053713         1.371684        -0.146182
 O         2.303812        -0.583004        -0.871020
 H        -0.650496        -0.892802         0.545761
 H        -0.666585         0.871850        -0.151899
 H        -0.533871        -0.608429        -1.108050
 H         1.787790         0.182619         2.308686
 H         1.837579        -1.541886         1.514172
 H         4.067895         0.528346         1.909412
 H         4.233829        -1.082665         1.044376
 H         4.720321         1.914232        -0.886134
 H         4.190960         1.015157        -2.361102
 H         1.981537         2.040037         0.760231
