19
Iteration:  3722charge 0 multiplicity 1
 C        -0.091960        -0.089780        -0.131517
 C         1.389770         0.074872         0.064535
 C         1.869347         0.115660         1.580358
 C         3.451635         0.257180         1.270205
 C         3.245339         0.331471        -0.201254
 C         3.928602         0.977299        -1.445079
 O         2.569370         1.534868        -1.791473
 C         2.082444         1.311474        -0.423875
 O         2.341741        -0.799468        -0.457389
 H        -0.421606         0.092813        -1.174056
 H        -0.647085        -0.940576         0.331073
 H        -0.622515         0.706253         0.369550
 H         1.455885         0.913938         2.127655
 H         1.666332        -0.853112         2.098666
 H         3.885573         1.143969         1.671690
 H         4.012961        -0.557118         1.608732
 H         4.735678         1.774714        -1.185954
 H         4.240237         0.147782        -2.112038
 H         2.166478         2.143277         0.172821
