19
Iteration:  2113charge 0 multiplicity 1
 C        -0.053156        -0.230714        -0.168857
 C         1.369544         0.017854         0.090583
 C         2.034085        -0.464012         1.458432
 C         3.582322        -0.289690         1.040328
 C         3.264747         0.339583        -0.389075
 C         3.732576         1.350700        -1.413115
 O         2.454141         2.098383        -1.212509
 C         2.160278         1.362790        -0.003655
 O         2.251008        -0.507541        -0.931934
 H        -0.009910        -1.145924        -0.780515
 H        -0.477814        -0.330910         0.840976
 H        -0.515573         0.453933        -0.896147
 H         1.720613         0.147588         2.422034
 H         1.716906        -1.484500         1.779003
 H         4.249246         0.183175         1.809559
 H         3.991819        -1.370595         1.105236
 H         4.572949         2.057641        -1.262620
 H         3.804269         0.978067        -2.445901
 H         2.124198         2.129859         0.855532
