19
Iteration:  4030charge 0 multiplicity 1
 C        -0.122915        -0.241308        -0.238857
 C         1.313759         0.189333         0.159764
 C         1.830462         0.304603         1.680035
 C         3.504600         0.354743         1.279591
 C         3.258975         0.331720        -0.130063
 C         3.818626         0.831651        -1.541646
 O         2.627040         1.457490        -1.824451
 C         2.199499         1.328652        -0.438031
 O         2.341558        -0.813444        -0.411431
 H        -0.138368        -1.291607        -0.667231
 H        -0.875786        -0.093666         0.511421
 H        -0.408126         0.435204        -1.085562
 H         1.497355         1.385886         1.970242
 H         1.440169        -0.411946         2.375663
 H         3.933009         1.212161         1.695896
 H         4.020543        -0.515198         1.679746
 H         4.642082         1.505397        -1.399535
 H         4.077231         0.006003        -2.109399
 H         2.231344         2.345327         0.046624
