19
Iteration:   311charge 0 multiplicity 1
 C        -0.042135        -0.253292        -0.253314
 C         1.374146         0.039669         0.128704
 C         2.051297        -0.657206         1.364457
 C         3.608718        -0.425257         1.017399
 C         3.326122         0.452603        -0.297791
 C         3.674780         1.383163        -1.446913
 O         2.426812         2.119142        -1.176034
 C         2.165973         1.439501         0.129676
 O         2.263706        -0.435827        -0.909804
 H        -0.731200        -0.989971         0.281157
 H        -0.755575         0.616864        -0.355734
 H        -0.046377        -0.627265        -1.304965
 H         2.006049        -0.074328         2.276275
 H         1.605801        -1.701132         1.498332
 H         3.987028         0.221797         1.802777
 H         4.185033        -1.435926         0.887982
 H         4.564070         2.095319        -1.274003
 H         3.668278         1.125406        -2.520342
 H         2.109529         2.198666         0.876815
