19
Iteration:  1141charge 0 multiplicity 1
 C        -0.041083        -0.197063        -0.201168
 C         1.374314         0.025575         0.043130
 C         2.129760        -0.628220         1.408959
 C         3.593684        -0.339255         1.038296
 C         3.248875         0.351222        -0.280429
 C         3.679550         1.325359        -1.355950
 O         2.438942         2.106694        -1.242239
 C         2.150347         1.410136         0.067612
 O         2.233021        -0.420455        -0.939686
 H        -0.211287        -1.223990        -0.634604
 H        -0.675190        -0.175293         0.751118
 H        -0.452915         0.541358        -0.923726
 H         1.642323        -0.139900         2.215804
 H         1.893373        -1.692087         1.471320
 H         4.126999         0.465293         1.585112
 H         4.325854        -1.193966         0.757598
 H         4.369521         2.069842        -0.951039
 H         3.946396         0.977849        -2.395318
 H         2.201573         2.128409         0.885019
