19
Iteration:   444
 C        -0.162233        -0.210862        -0.241560
 C         1.389640        -0.016629        -0.021409
 C         2.084277        -0.465693         1.425039
 C         3.671870        -0.290611         1.016069
 C         3.277926         0.347623        -0.299258
 C         3.669164         1.379248        -1.395000
 O         2.436560         2.101274        -1.142252
 C         2.173128         1.303611         0.105260
 O         2.270689        -0.538556        -0.954304
 H        -0.298631        -0.870661        -1.073999
 H        -0.536508        -0.466248         0.759303
 H        -0.404046         0.836540        -0.357382
 H         1.665966         0.213615         2.182007
 H         1.729046        -1.438312         1.576734
 H         4.084173         0.521130         1.545377
 H         4.257001        -1.152865         0.865716
 H         4.557694         1.912087        -1.031468
 H         3.890698         1.063551        -2.426216
 H         2.038577         1.920469         0.930779
