19
Iteration:  3081
 C        -0.156695        -0.170933        -0.294734
 C         1.355830         0.047379         0.129028
 C         2.047730        -0.233109         1.561218
 C         3.571359        -0.161289         1.210225
 C         3.344852         0.315399        -0.210580
 C         3.756788         1.219366        -1.544149
 O         2.437582         1.997531        -1.452046
 C         2.164673         1.348783        -0.166562
 O         2.307636        -0.687754        -0.711552
 H        -0.711833        -0.562563         0.536668
 H        -0.550362         0.745166        -0.684127
 H        -0.158333        -0.960763        -0.998021
 H         1.641715         0.598503         2.274854
 H         1.607602        -1.077522         1.973188
 H         4.104472         0.563305         1.809842
 H         4.057233        -1.175590         1.299948
 H         4.642646         2.002318        -1.608686
 H         3.836683         0.457495        -2.296029
 H         2.140653         2.163832         0.591776
