19
Iteration:  4966charge 0 multiplicity 1
 C        -0.127492        -0.164869        -0.003657
 C         1.333867         0.218307         0.080354
 C         1.866973         0.013625         1.562622
 C         3.439470         0.253649         1.385722
 C         3.275587         0.454825        -0.118919
 C         3.824818         0.897394        -1.478298
 O         2.574406         1.392311        -1.897380
 C         2.220735         1.457031        -0.531207
 O         2.374775        -0.709917        -0.474574
 H        -0.566058        -0.564753         0.827949
 H        -0.658072         0.765950        -0.283259
 H        -0.376339        -0.824054        -0.831876
 H         1.384368         0.756220         2.266576
 H         1.655776        -1.032071         1.671392
 H         3.740587         1.123627         1.916515
 H         4.041509        -0.605450         1.777005
 H         4.736320         1.540612        -1.482279
 H         4.226989         0.044797        -2.058361
 H         2.173758         2.399735        -0.125186
