19
Iteration:  2519charge 0 multiplicity 1
 C        -0.111693        -0.220850        -0.232052
 C         1.313399        -0.041737         0.116941
 C         2.043410        -0.403607         1.487764
 C         3.609666        -0.301055         1.032624
 C         3.274879         0.382299        -0.334138
 C         3.709679         1.333195        -1.500003
 O         2.450954         2.170157        -1.171103
 C         2.186684         1.371026        -0.022819
 O         2.296833        -0.643206        -0.874180
 H        -0.549779         0.457622        -1.025646
 H        -0.320956        -1.259851        -0.734277
 H        -0.759640        -0.094548         0.624259
 H         1.826883         0.418610         2.162186
 H         1.783678        -1.465928         1.753559
 H         3.866382         0.482255         1.821596
 H         4.284823        -1.138949         1.056700
 H         4.681292         2.057834        -1.416048
 H         3.994418         0.851529        -2.527036
 H         2.459847         1.933552         0.928159
