19
Iteration:  4872
 C        -0.078619        -0.226313        -0.227590
 C         1.376031         0.240987         0.184826
 C         1.886710         0.168108         1.664340
 C         3.463980         0.188584         1.439814
 C         3.284100         0.448849        -0.155345
 C         3.889383         0.675480        -1.500552
 O         2.513680         1.443097        -1.929824
 C         2.125776         1.457841        -0.407303
 O         2.350419        -0.592660        -0.460167
 H        -0.174925        -1.337163        -0.382422
 H        -0.739243         0.131932         0.603358
 H        -0.438714         0.371441        -1.138010
 H         1.374241         0.925665         2.299506
 H         1.683834        -0.897918         1.901057
 H         4.088151         1.008727         1.870635
 H         3.960600        -0.802384         1.575567
 H         4.628437         1.304816        -1.814517
 H         4.003646        -0.242519        -2.094148
 H         1.972010         2.576909        -0.066594
