19
Iteration:  4276charge 0 multiplicity 1
 C        -0.081546        -0.053802        -0.074438
 C         1.332942         0.137041         0.118445
 C         1.901144         0.247533         1.558334
 C         3.372037         0.284602         1.309074
 C         3.271166         0.400194        -0.211168
 C         3.964513         0.936482        -1.375555
 O         2.593386         1.398772        -1.868324
 C         2.088475         1.248323        -0.533390
 O         2.361740        -0.849738        -0.431355
 H        -0.405100        -1.074718        -0.462539
 H        -0.674249        -0.065910         0.875052
 H        -0.531409         0.647757        -0.799320
 H         1.640677         1.226729         2.069063
 H         1.415986        -0.629193         2.211341
 H         3.887904         1.199124         1.731901
 H         3.792315        -0.678079         1.514458
 H         4.570705         1.773732        -1.210685
 H         4.427923         0.284869        -2.130873
 H         1.963656         2.198156        -0.012226
