19
Iteration:  1446
 C        -0.130707        -0.103706        -0.060442
 C         1.368470        -0.059057         0.043039
 C         1.998604        -0.527619         1.323156
 C         3.587339        -0.302825         0.958635
 C         3.356767         0.363660        -0.330139
 C         3.731969         1.493859        -1.265112
 O         2.401415         2.052530        -1.265184
 C         2.131924         1.294817         0.072901
 O         2.332698        -0.582893        -1.016237
 H        -0.473877        -1.092147         0.153586
 H        -0.469832         0.580587         0.719669
 H        -0.279781         0.256886        -1.058388
 H         1.916780         0.084695         2.299850
 H         1.783572        -1.641669         1.483265
 H         3.935101         0.365259         1.661143
 H         4.263456        -1.170397         0.890226
 H         4.312078         2.338025        -0.820548
 H         4.074127         1.113662        -2.302566
 H         2.203822         1.842051         1.057146
