19
Iteration:  2947charge 0 multiplicity 1
 C        -0.029995        -0.140480        -0.290414
 C         1.380473         0.073375         0.106173
 C         2.047623        -0.305990         1.532425
 C         3.565271        -0.218287         1.123575
 C         3.258369         0.337134        -0.256629
 C         3.683725         1.277061        -1.439497
 O         2.429990         1.969575        -1.373125
 C         2.180208         1.389125        -0.098545
 O         2.273837        -0.663605        -0.774737
 H         0.102074        -0.331254        -1.366263
 H        -0.485799        -1.043521         0.107070
 H        -0.871354         0.469231         0.055924
 H         1.630621         0.404419         2.347903
 H         1.831162        -1.406132         1.837821
 H         4.350071         0.440744         1.652948
 H         4.006497        -1.263216         1.189016
 H         4.656157         1.955381        -1.229095
 H         3.797079         0.867780        -2.513088
 H         2.237453         2.168974         0.655070
