19
Iteration:  4905charge 0 multiplicity 1
 C        -0.065672        -0.221054        -0.160173
 C         1.327863         0.204934         0.096512
 C         1.880766         0.359946         1.605020
 C         3.439334         0.190270         1.318133
 C         3.304925         0.277130        -0.190413
 C         3.905678         0.857639        -1.533578
 O         2.518795         1.512097        -1.792680
 C         2.173089         1.340283        -0.400983
 O         2.353192        -0.777292        -0.441440
 H        -0.298720        -1.244628         0.282074
 H        -0.691846         0.487949         0.427007
 H        -0.257874        -0.179007        -1.277194
 H         1.368367         1.195807         2.068051
 H         1.368891        -0.487761         2.105992
 H         4.014375         1.085511         1.714504
 H         3.820595        -0.756117         1.744237
 H         4.614776         1.644109        -1.505211
 H         4.031075         0.109567        -2.319696
 H         2.041312         2.356887         0.182419
