19
Iteration:  1639charge 0 multiplicity 1
 C        -0.088023        -0.152454        -0.038079
 C         1.386357        -0.035024         0.015462
 C         1.996262        -0.575945         1.404845
 C         3.608030        -0.253263         0.968308
 C         3.257987         0.409765        -0.270834
 C         3.718713         1.410167        -1.306131
 O         2.477446         2.064949        -1.239112
 C         2.064282         1.310590        -0.012802
 O         2.338491        -0.517170        -1.018918
 H        -0.306445        -1.269733         0.009015
 H        -0.511541         0.505688         0.753528
 H        -0.502833         0.133171        -1.007498
 H         1.973889        -0.015070         2.292939
 H         1.769257        -1.635168         1.554482
 H         4.191789         0.413264         1.716510
 H         4.088865        -1.310617         0.810723
 H         4.597444         2.110480        -1.126275
 H         3.908988         1.028297        -2.326580
 H         1.957851         2.015972         0.812037
