19
Iteration:  3587charge 0 multiplicity 1
 C        -0.176026        -0.118957        -0.142251
 C         1.341231         0.129874         0.107778
 C         1.974359        -0.027005         1.620009
 C         3.460432         0.173674         1.298517
 C         3.254781         0.378516        -0.167469
 C         3.869787         1.031924        -1.471507
 O         2.598964         1.553786        -1.809460
 C         2.079411         1.359044        -0.347906
 O         2.354652        -0.735655        -0.557956
 H        -0.777337         0.136923         0.745630
 H        -0.412771         0.598183        -0.955578
 H        -0.190123        -1.173457        -0.547838
 H         1.594618         0.840330         2.139852
 H         1.584883        -0.921293         2.174145
 H         3.871992         0.999166         1.910681
 H         4.145035        -0.688703         1.481412
 H         4.772810         1.649861        -1.282114
 H         4.100538         0.244878        -2.341876
 H         1.956059         2.181802         0.275509
