19
Iteration:  1408charge 0 multiplicity 1
 C        -0.058087        -0.225850        -0.233089
 C         1.377135         0.079059         0.113609
 C         2.092911        -0.583163         1.354549
 C         3.661649        -0.359607         0.960830
 C         3.266850         0.448347        -0.252964
 C         3.623883         1.368383        -1.374399
 O         2.450588         2.182999        -1.208075
 C         2.163699         1.345574         0.109253
 O         2.231419        -0.548173        -0.920367
 H        -0.583007        -1.215900        -0.115973
 H        -0.814867         0.550380         0.028304
 H        -0.122434        -0.103228        -1.347469
 H         1.981191        -0.264205         2.359471
 H         1.742030        -1.570692         1.341729
 H         4.222018         0.304710         1.754288
 H         4.141063        -1.327595         0.952813
 H         4.557795         1.856474        -1.215784
 H         3.784810         0.793099        -2.224547
 H         2.186866         2.061210         0.887860
