19
Iteration:  1560charge 0 multiplicity 1
 C        -0.131000        -0.153584        -0.215342
 C         1.386713         0.016887        -0.010149
 C         2.098303        -0.476703         1.460044
 C         3.638663        -0.311772         0.939585
 C         3.280450         0.319152        -0.298911
 C         3.675268         1.397543        -1.351956
 O         2.461334         2.139197        -1.181744
 C         2.061537         1.295121         0.068749
 O         2.336179        -0.588863        -0.934152
 H        -0.416586        -1.198921        -0.115851
 H        -0.642666         0.349263         0.575578
 H        -0.420242         0.295344        -1.180341
 H         1.919401         0.131376         2.353088
 H         1.874130        -1.486075         1.710959
 H         4.176904         0.312176         1.724902
 H         4.132463        -1.256940         0.809338
 H         4.480497         2.158242        -1.212988
 H         3.589081         1.039456        -2.356543
 H         1.976384         1.915854         0.935413
