19
Iteration:  2774
 C        -0.060579        -0.243598        -0.159328
 C         1.346485         0.053658         0.092186
 C         2.083819        -0.451656         1.424837
 C         3.542706        -0.270366         1.042891
 C         3.338566         0.456788        -0.242952
 C         3.743003         1.258189        -1.393459
 O         2.421793         2.031032        -1.308507
 C         2.167354         1.401877        -0.024367
 O         2.268624        -0.539807        -0.910209
 H        -0.728504         0.645181         0.054422
 H        -0.186774        -0.142556        -1.216373
 H        -0.640013        -1.073168         0.335168
 H         1.784505         0.106088         2.314084
 H         1.830612        -1.499119         1.532594
 H         4.061831         0.308383         1.752496
 H         4.074977        -1.206273         0.843511
 H         4.527379         1.877403        -1.077179
 H         3.963485         0.752854        -2.293756
 H         1.877493         2.020161         0.869655
