19
Iteration:  1252charge 0 multiplicity 1
 C        -0.020594        -0.192504        -0.259176
 C         1.399475         0.017332         0.193582
 C         2.037137        -0.589401         1.427600
 C         3.568248        -0.355350         0.965853
 C         3.276313         0.387501        -0.274406
 C         3.646767         1.411316        -1.412925
 O         2.456202         2.160767        -1.217266
 C         2.128712         1.374932         0.070329
 O         2.305402        -0.512356        -0.908080
 H        -0.223853        -1.307987        -0.163043
 H        -0.793903         0.328725         0.407922
 H        -0.098099         0.099663        -1.352747
 H         1.717925        -0.162696         2.343296
 H         1.814807        -1.702315         1.372540
 H         4.250566         0.024622         1.805175
 H         4.055623        -1.254601         0.378026
 H         4.508482         2.012308        -1.267582
 H         3.614096         0.969004        -2.438682
 H         2.082412         2.087294         0.892590
