19
Iteration:  1297
 C        -0.093873        -0.202360        -0.108465
 C         1.323757         0.042946         0.068768
 C         2.064533        -0.584652         1.327090
 C         3.597319        -0.300968         0.979668
 C         3.257827         0.413616        -0.299199
 C         3.761992         1.398769        -1.272102
 O         2.432722         2.014009        -1.249340
 C         2.127396         1.361546         0.054428
 O         2.289640        -0.432329        -0.991907
 H        -0.134672        -1.165617        -0.671751
 H        -0.573645        -0.220433         0.902969
 H        -0.497361         0.623497        -0.754518
 H         1.769853        -0.364414         2.318465
 H         1.917229        -1.658602         1.134875
 H         4.243377         0.361128         1.654065
 H         4.003270        -1.340980         1.031648
 H         4.534064         2.077616        -0.967197
 H         4.045746         0.924556        -2.193175
 H         2.208633         2.021952         0.893175
