19
Iteration:   914
 C        -0.088349        -0.183385        -0.049203
 C         1.400514         0.004463         0.086164
 C         2.037168        -0.611471         1.384980
 C         3.491727        -0.325533         0.979704
 C         3.328075         0.353995        -0.313898
 C         3.776209         1.397027        -1.315895
 O         2.399430         2.110550        -1.236312
 C         2.130529         1.451317        -0.034435
 O         2.338201        -0.547915        -1.015019
 H        -0.406699        -1.104484        -0.489655
 H        -0.502120        -0.136750         0.972571
 H        -0.546597         0.619103        -0.611377
 H         1.762138        -0.194965         2.380887
 H         1.920492        -1.736650         1.212622
 H         3.983590         0.395932         1.625968
 H         4.186668        -1.185045         0.941807
 H         4.474985         2.033251        -0.876846
 H         3.970364         1.097288        -2.356643
 H         1.991340         2.279574         0.861478
