19
Iteration:  1521charge 0 multiplicity 1
 C        -0.081565        -0.294062        -0.181782
 C         1.356999         0.089718         0.078624
 C         2.031040        -0.531998         1.394138
 C         3.589539        -0.359635         1.009326
 C         3.282784         0.351662        -0.362826
 C         3.651873         1.403242        -1.371414
 O         2.497775         2.159464        -1.217729
 C         2.180135         1.408335         0.073404
 O         2.261677        -0.512423        -0.927624
 H         0.100158        -1.353064        -0.596257
 H        -0.604221        -0.308548         0.864005
 H        -0.558257         0.324047        -0.965794
 H         1.985825         0.055459         2.384718
 H         1.658542        -1.614841         1.511490
 H         4.080081         0.501159         1.513309
 H         4.161235        -1.357240         1.081455
 H         4.665320         1.800424        -1.271913
 H         3.653588         0.779362        -2.326672
 H         2.120864         2.128882         0.951392
