19
Iteration:  2983charge 0 multiplicity 1
 C        -0.113103        -0.096718        -0.076021
 C         1.353597         0.035647         0.037068
 C         2.011742        -0.398379         1.469127
 C         3.569414        -0.113454         1.210753
 C         3.257925         0.361084        -0.219280
 C         3.750346         1.249699        -1.412836
 O         2.473187         1.870146        -1.444005
 C         2.118095         1.387841        -0.181194
 O         2.359862        -0.598118        -0.873195
 H        -0.503331         0.732997        -0.693618
 H        -0.144155        -1.007846        -0.639457
 H        -0.633133         0.005519         0.842479
 H         1.554876         0.093758         2.353320
 H         1.961058        -1.419957         1.620890
 H         4.115513         0.596273         1.779898
 H         3.990193        -1.159415         1.212708
 H         4.592833         1.991245        -1.189085
 H         3.943041         0.586769        -2.241590
 H         1.966209         2.217613         0.586006
