19
Iteration:  4429charge 0 multiplicity 1
 C        -0.124292        -0.168728        -0.050651
 C         1.308936         0.207237         0.165304
 C         1.872104         0.149715         1.598530
 C         3.379800         0.170586         1.329454
 C         3.304818         0.494229        -0.159647
 C         3.890827         0.862245        -1.437087
 O         2.596894         1.353969        -1.917726
 C         2.122709         1.362968        -0.450552
 O         2.408492        -0.620958        -0.532948
 H        -0.530163        -0.484903         0.932332
 H        -0.540603         0.669896        -0.487916
 H        -0.158134        -0.996459        -0.805689
 H         1.496528         0.924606         2.242993
 H         1.480306        -0.835922         2.042716
 H         3.795133         0.936161         2.017776
 H         3.949996        -0.716741         1.462671
 H         4.811349         1.610933        -1.551405
 H         4.077496        -0.101254        -1.979650
 H         2.026795         2.411020        -0.122327
