19
Iteration:  2495charge 0 multiplicity 1
 C        -0.024036        -0.204077        -0.191785
 C         1.392407         0.105931         0.121046
 C         2.071061        -0.506815         1.469186
 C         3.567349        -0.259042         1.074472
 C         3.315016         0.353886        -0.337860
 C         3.649329         1.294637        -1.380357
 O         2.436735         2.025464        -1.270509
 C         2.163233         1.422392        -0.038765
 O         2.257316        -0.521660        -0.878497
 H        -0.623649         0.594483        -0.728569
 H        -0.038533        -1.013253        -0.968904
 H        -0.639013        -0.468538         0.638345
 H         1.469648        -0.058765         2.310435
 H         1.856220        -1.523229         1.254197
 H         4.169204         0.428918         1.672780
 H         4.140825        -1.276416         1.048858
 H         4.576290         1.979274        -1.350124
 H         3.829932         0.734928        -2.350553
 H         2.088067         2.167797         0.766082
