19
Iteration:  4692
 C        -0.126988        -0.009259        -0.126655
 C         1.342182         0.090947         0.119163
 C         1.844621         0.208263         1.569505
 C         3.426704         0.290485         1.288970
 C         3.308448         0.341084        -0.238340
 C         3.915223         0.972812        -1.497399
 O         2.535372         1.418305        -1.835936
 C         2.188940         1.284322        -0.408641
 O         2.388261        -0.873963        -0.378310
 H        -0.679168        -0.696025         0.625579
 H        -0.621077         0.973489        -0.000494
 H        -0.366628        -0.364681        -1.136283
 H         1.534671         0.973880         2.226159
 H         1.526952        -0.799269         1.843986
 H         3.863544         1.278956         1.647459
 H         3.812884        -0.637038         1.743187
 H         4.507852         1.864998        -1.346759
 H         4.362958         0.314568        -2.223723
 H         2.045766         2.306875         0.060207
