19
Iteration:  2110
 C        -0.033160        -0.257540        -0.173038
 C         1.370560         0.023888         0.075499
 C         2.012758        -0.446092         1.479566
 C         3.608403        -0.307844         1.038941
 C         3.283245         0.329543        -0.380958
 C         3.721948         1.402011        -1.421351
 O         2.459766         2.095265        -1.204206
 C         2.141212         1.374932        -0.022837
 O         2.240352        -0.530440        -0.919254
 H        -0.106347        -1.118710        -0.857605
 H        -0.492674        -0.256337         0.849191
 H        -0.575415         0.523783        -0.846697
 H         1.689587         0.142661         2.326558
 H         1.754739        -1.439388         1.804135
 H         4.221207         0.169996         1.695801
 H         3.918634        -1.334181         1.088688
 H         4.656354         1.928881        -1.244030
 H         3.780213         0.969044        -2.409889
 H         2.236644         2.059645         0.912179
