19
Iteration:  4916charge 0 multiplicity 1
 C        -0.137971        -0.168556        -0.130865
 C         1.350808         0.090886         0.049473
 C         1.918231         0.325832         1.545630
 C         3.508180         0.296316         1.330292
 C         3.264268         0.300235        -0.192201
 C         3.850140         0.835130        -1.450516
 O         2.546793         1.523192        -1.802533
 C         2.153069         1.313935        -0.372259
 O         2.313638        -0.782787        -0.506116
 H        -0.347963        -1.155309         0.426995
 H        -0.865611         0.630087         0.085287
 H        -0.381811        -0.434756        -1.218049
 H         1.655122         1.318539         1.904789
 H         1.744088        -0.483485         2.287515
 H         4.157925         1.125639         1.770925
 H         3.861994        -0.650192         1.783225
 H         4.632629         1.408535        -1.000511
 H         4.333683         0.246593        -2.242447
 H         2.110438         2.300931         0.270818
