19
Iteration:  4408charge 0 multiplicity 1
 C        -0.202856        -0.093882        -0.146113
 C         1.331970         0.174230         0.101541
 C         1.885613         0.146470         1.656820
 C         3.507096         0.191678         1.403287
 C         3.342607         0.435307        -0.145528
 C         3.925656         0.959168        -1.486812
 O         2.587796         1.299611        -1.897102
 C         2.139824         1.445670        -0.531772
 O         2.289483        -0.755089        -0.450643
 H        -0.600367        -0.415902         0.880437
 H        -0.687368         0.746530        -0.481974
 H        -0.264381        -0.985343        -0.831573
 H         1.493364         0.917858         2.364662
 H         1.692710        -0.956559         2.076462
 H         3.948204         1.019111         1.908234
 H         4.017977        -0.738207         1.511761
 H         4.547412         2.000677        -1.232806
 H         4.468300         0.410891        -2.310275
 H         1.740955         2.260711        -0.052217
