19
Iteration:   905
 C        -0.088039        -0.144170        -0.054460
 C         1.398781        -0.007003         0.008898
 C         2.047073        -0.613962         1.361246
 C         3.528465        -0.311074         0.989937
 C         3.253599         0.290375        -0.436054
 C         3.737216         1.497678        -1.274043
 O         2.448643         2.144384        -1.257882
 C         2.154251         1.455001        -0.015809
 O         2.351065        -0.631409        -0.896396
 H        -0.314636        -1.173102        -0.252831
 H        -0.283980        -0.072615         1.034081
 H        -0.626393         0.552619        -0.672081
 H         1.678445        -0.212023         2.259592
 H         1.626867        -1.707488         1.392084
 H         3.988298         0.320051         1.703846
 H         4.066822        -1.274173         0.806293
 H         4.468111         2.205867        -0.873449
 H         3.994662         1.236425        -2.339933
 H         1.781181         2.021514         0.941844
