19
Iteration:  1352
 C        -0.087644        -0.202656        -0.092378
 C         1.348408         0.039680         0.025780
 C         2.042223        -0.569703         1.318907
 C         3.588219        -0.347074         0.941944
 C         3.277776         0.400181        -0.312748
 C         3.811999         1.438286        -1.289189
 O         2.409159         2.022601        -1.187540
 C         2.136276         1.383332         0.011181
 O         2.291945        -0.494451        -0.979126
 H        -0.321994        -1.273986        -0.358906
 H        -0.508356        -0.084858         0.946475
 H        -0.602402         0.500039        -0.820507
 H         1.884339         0.106624         2.132951
 H         1.719628        -1.565820         1.598615
 H         4.167562         0.315365         1.699052
 H         3.975599        -1.379606         0.855286
 H         4.402215         2.125162        -0.744576
 H         4.171373         1.112891        -2.210755
 H         2.032873         2.095899         0.815071
