19
Iteration:  4028charge 0 multiplicity 1
 C        -0.115571        -0.231480        -0.239537
 C         1.294152         0.183442         0.165645
 C         1.833960         0.301062         1.672717
 C         3.502058         0.360518         1.273486
 C         3.277664         0.335739        -0.124074
 C         3.827276         0.821876        -1.522887
 O         2.617372         1.453155        -1.834896
 C         2.200082         1.317674        -0.443686
 O         2.345811        -0.789915        -0.421305
 H        -0.153290        -1.286026        -0.607479
 H        -0.849639        -0.132836         0.503123
 H        -0.438982         0.451733        -1.015823
 H         1.501373         1.290581         1.963644
 H         1.414085        -0.458565         2.361318
 H         3.975184         1.214203         1.715326
 H         3.956667        -0.497377         1.685404
 H         4.634989         1.561827        -1.378734
 H         4.036012        -0.102888        -2.085283
 H         2.231010         2.358144         0.069370
