19
Iteration:  2164charge 0 multiplicity 1
 C        -0.131931        -0.097131        -0.043829
 C         1.378682         0.074797         0.112784
 C         2.082852        -0.701984         1.375249
 C         3.560541        -0.355378         1.040323
 C         3.307641         0.485066        -0.286291
 C         3.766122         1.416417        -1.324939
 O         2.389067         1.986996        -1.389616
 C         2.068030         1.389782        -0.045470
 O         2.355868        -0.508169        -0.915090
 H        -0.534025        -1.075280         0.283518
 H        -0.681393         0.735253         0.461553
 H         0.007537         0.035475        -1.184061
 H         1.834375        -0.393027         2.348513
 H         1.815602        -1.735110         1.228862
 H         3.957896         0.210805         1.844268
 H         4.162865        -1.245283         1.050704
 H         4.545450         2.150654        -0.971578
 H         3.989024         1.008693        -2.327650
 H         2.144443         2.214015         0.696592
