19
Iteration:   915
 C        -0.088273        -0.188748        -0.048562
 C         1.400102         0.010280         0.092221
 C         2.036391        -0.608867         1.382734
 C         3.497508        -0.325665         0.982469
 C         3.329524         0.365634        -0.300663
 C         3.775051         1.389004        -1.320854
 O         2.397782         2.106806        -1.236321
 C         2.126940         1.440253        -0.033965
 O         2.334264        -0.537596        -1.023952
 H        -0.411371        -1.090242        -0.514538
 H        -0.541631        -0.133653         0.962058
 H        -0.535454         0.619605        -0.605021
 H         1.772730        -0.211270         2.351635
 H         1.938970        -1.751367         1.224621
 H         3.981339         0.387542         1.619743
 H         4.196698        -1.191029         0.966962
 H         4.500385         2.021262        -0.874594
 H         3.982276         1.082774        -2.366455
 H         2.022547         2.283137         0.848111
