19
Iteration:  1338
 C        -0.176684        -0.185326        -0.051924
 C         1.407857        -0.014974         0.042897
 C         2.071174        -0.444536         1.388824
 C         3.572740        -0.343156         0.958270
 C         3.256812         0.323725        -0.350267
 C         3.806774         1.481657        -1.179432
 O         2.430868         2.130057        -1.285026
 C         2.096109         1.287427        -0.027053
 O         2.321489        -0.570927        -0.996590
 H        -0.535661        -1.085038        -0.518654
 H        -0.691304        -0.092080         0.939042
 H        -0.634480         0.625216        -0.636237
 H         1.616735        -0.223876         2.376965
 H         2.001964        -1.585563         1.181895
 H         4.274880         0.160211         1.649712
 H         4.176038        -1.273162         0.652366
 H         4.612259         2.048765        -0.675275
 H         4.147052         1.435060        -2.288897
 H         2.122550         1.894046         0.937513
