19
Iteration:  3336
 C        -0.032362        -0.324514        -0.128053
 C         1.361071         0.222444         0.104354
 C         1.957011        -0.062575         1.615531
 C         3.434198        -0.114010         1.288433
 C         3.313315         0.420734        -0.208793
 C         3.802926         0.984811        -1.512279
 O         2.530025         1.757106        -1.638957
 C         2.134673         1.433434        -0.327050
 O         2.284158        -0.529274        -0.675279
 H        -0.440525        -0.890556         0.655730
 H        -0.845881         0.352999        -0.356913
 H         0.066966        -1.001134        -1.016910
 H         1.725257         0.824125         2.208569
 H         1.512859        -1.164900         1.944964
 H         3.977165         0.634390         1.866026
 H         4.030572        -0.975175         1.313711
 H         4.659745         1.470015        -1.183035
 H         3.960561         0.137298        -2.264026
 H         2.224003         2.347474         0.362473
