19
Iteration:  2817charge 0 multiplicity 1
 C         0.009179        -0.167155        -0.266878
 C         1.434601         0.049182         0.115986
 C         2.018286        -0.421205         1.458968
 C         3.573537        -0.282906         1.108494
 C         3.274602         0.435786        -0.279542
 C         3.764673         1.277461        -1.435690
 O         2.349548         1.972707        -1.324384
 C         2.156606         1.406795        -0.023642
 O         2.272743        -0.529728        -0.835406
 H        -0.725075        -0.342828         0.607959
 H        -0.569805         0.620091        -0.759843
 H        -0.051821        -1.162050        -0.853991
 H         1.752773         0.154316         2.363865
 H         1.710970        -1.470617         1.679382
 H         4.141246         0.081682         1.995389
 H         3.871161        -1.293994         0.775439
 H         4.570090         1.949653        -1.303141
 H         3.742996         0.733064        -2.366674
 H         2.368178         2.176478         0.781008
