19
Iteration:  2101
 C        -0.060040        -0.290760        -0.202328
 C         1.404994         0.050055         0.056699
 C         2.007713        -0.381265         1.477214
 C         3.599420        -0.363327         1.014560
 C         3.305839         0.335629        -0.299825
 C         3.700163         1.455434        -1.431415
 O         2.471690         2.124658        -1.211777
 C         2.157754         1.370373        -0.026894
 O         2.237823        -0.615346        -0.895994
 H        -0.367419        -1.195859        -0.713960
 H        -0.719078        -0.403959         0.704005
 H        -0.486609         0.685565        -0.564156
 H         1.654374         0.424277         2.236075
 H         1.787817        -1.426326         1.692623
 H         4.219503         0.327458         1.531570
 H         4.017030        -1.409800         0.805603
 H         4.618830         1.900772        -1.080757
 H         3.711860         1.044329        -2.429618
 H         2.367882         1.898031         0.980978
