19
Iteration:  4453charge 0 multiplicity 1
 C        -0.079285        -0.255236        -0.113553
 C         1.324831         0.183139         0.061991
 C         1.892631         0.230429         1.567893
 C         3.447250         0.303362         1.388548
 C         3.288329         0.342593        -0.203549
 C         3.869296         0.749087        -1.511551
 O         2.594190         1.546561        -1.770359
 C         2.157115         1.416892        -0.435263
 O         2.292295        -0.748771        -0.478803
 H        -0.407394        -0.606656         0.889239
 H        -0.571674         0.621655        -0.482606
 H        -0.071358        -1.054781        -0.848412
 H         1.318337         1.052117         2.079952
 H         1.521719        -0.744887         2.059158
 H         3.926391         1.146506         1.803395
 H         3.962394        -0.596961         1.714631
 H         4.799019         1.530267        -1.477034
 H         4.005149        -0.038547        -2.281616
 H         2.082480         2.367121        -0.034084
