19
Iteration:  3543
 C        -0.101663        -0.125266        -0.119959
 C         1.377948         0.178175         0.140728
 C         1.903755        -0.068191         1.569525
 C         3.461552         0.058689         1.339244
 C         3.276180         0.455643        -0.123691
 C         3.821205         0.996999        -1.488139
 O         2.537841         1.505261        -1.744767
 C         2.157079         1.412666        -0.377568
 O         2.339765        -0.642509        -0.658852
 H        -0.680766         0.813385        -0.120025
 H        -0.108494        -0.725473        -1.042824
 H        -0.343384        -0.855502         0.728205
 H         1.672870         0.655900         2.290171
 H         1.493803        -1.029751         1.914574
 H         3.674837         1.003556         1.889344
 H         4.080438        -0.815025         1.631003
 H         4.572134         1.815729        -1.500791
 H         4.288179         0.120199        -2.135523
 H         2.105383         2.395090         0.008336
