19
Iteration:  1944charge 0 multiplicity 1
 C        -0.090131        -0.274066        -0.206620
 C         1.406336         0.058361         0.190607
 C         2.039741        -0.560861         1.443059
 C         3.556638        -0.415190         0.989456
 C         3.239368         0.438021        -0.314232
 C         3.739719         1.415877        -1.409767
 O         2.456025         2.061681        -1.298869
 C         2.179737         1.443492         0.021616
 O         2.271442        -0.447373        -0.859847
 H        -0.100406        -1.397410        -0.214862
 H        -0.831478         0.370335         0.356042
 H        -0.155967        -0.016249        -1.293200
 H         1.830902        -0.064263         2.414245
 H         1.865089        -1.682520         1.536369
 H         4.225076         0.072708         1.667655
 H         3.846070        -1.387728         0.736400
 H         4.568861         2.043055        -1.166294
 H         3.954850         0.841271        -2.331568
 H         1.845696         2.238785         0.763528
