19
Iteration:  3539charge 0 multiplicity 1
 C        -0.123228        -0.148196        -0.127517
 C         1.361396         0.155200         0.166412
 C         1.899504        -0.057904         1.574350
 C         3.469139         0.072815         1.308079
 C         3.291157         0.434312        -0.116822
 C         3.863432         0.970507        -1.494532
 O         2.511009         1.553830        -1.749015
 C         2.181246         1.410755        -0.381636
 O         2.347434        -0.657964        -0.666379
 H        -0.627337         0.796650        -0.228888
 H        -0.154192        -0.732519        -1.037376
 H        -0.446855        -0.737045         0.736200
 H         1.637239         0.760745         2.423104
 H         1.516349        -0.976189         1.943991
 H         3.765647         0.977856         1.938495
 H         4.050842        -0.793286         1.690546
 H         4.610473         1.787257        -1.450703
 H         4.200640         0.182390        -2.079943
 H         1.951215         2.435379         0.054634
