19
Iteration:  2092
 C        -0.157591        -0.251422        -0.174836
 C         1.381974         0.010503         0.068541
 C         2.071141        -0.339006         1.403232
 C         3.549463        -0.372842         0.977837
 C         3.271576         0.371158        -0.301629
 C         3.712465         1.382929        -1.389320
 O         2.454799         2.176671        -1.218258
 C         2.236287         1.343448         0.010768
 O         2.282641        -0.673846        -0.876881
 H        -0.199176        -1.123558        -0.848298
 H        -0.629464        -0.551544         0.744531
 H        -0.547552         0.568823        -0.746107
 H         1.900096         0.406081         2.301344
 H         1.589626        -1.295469         1.722163
 H         4.255238         0.223563         1.692489
 H         4.176219        -1.314745         0.750712
 H         4.410403         2.190442        -1.086863
 H         3.885385         1.158486        -2.458942
 H         2.122245         2.059202         0.812392
