19
Iteration:   117charge 0 multiplicity 1
 C        -0.037983        -0.111490        -0.010896
 C         1.419742        -0.046650        -0.024808
 C         2.122932        -0.655616         1.229215
 C         3.603171        -0.506745         0.930900
 C         3.298870         0.424209        -0.306762
 C         3.666073         1.590444        -1.173624
 O         2.384485         2.191395        -1.173694
 C         2.060860         1.345095         0.025999
 O         2.315847        -0.531064        -1.027269
 H        -0.449446        -1.027827        -0.599616
 H        -0.444398        -0.323059         0.977461
 H        -0.619467         0.685472        -0.428314
 H         1.697597        -0.335424         2.166327
 H         1.746705        -1.783024         1.160338
 H         4.273231        -0.118767         1.658548
 H         4.054894        -1.454005         0.441345
 H         4.363106         2.170148        -0.529551
 H         4.102214         1.427776        -2.254775
 H         2.013139         1.837221         1.072624
