19
Iteration:  4909charge 0 multiplicity 1
 C        -0.081913        -0.201662        -0.149015
 C         1.309865         0.159249         0.065605
 C         1.919328         0.363322         1.579429
 C         3.473105         0.221834         1.308550
 C         3.292943         0.273895        -0.174472
 C         3.896104         0.845470        -1.520137
 O         2.512421         1.519805        -1.804229
 C         2.166529         1.337785        -0.370351
 O         2.346679        -0.774625        -0.461109
 H        -0.293401        -1.190133         0.302605
 H        -0.758753         0.521327         0.278222
 H        -0.297834        -0.258943        -1.183812
 H         1.316926         1.236536         2.024974
 H         1.399193        -0.489076         2.162700
 H         4.055048         1.032380         1.743481
 H         3.787928        -0.661777         1.826114
 H         4.707037         1.582689        -1.216278
 H         4.131616         0.135964        -2.311947
 H         2.048857         2.248953         0.230957
