19
Iteration:   770
 C        -0.190229        -0.129620        -0.122115
 C         1.354148        -0.027961         0.105895
 C         2.088183        -0.626344         1.327508
 C         3.646797        -0.309595         0.979381
 C         3.277699         0.290826        -0.373003
 C         3.839168         1.498406        -1.257497
 O         2.375208         2.108701        -1.256066
 C         2.138084         1.318824        -0.022158
 O         2.291252        -0.549295        -0.910567
 H        -0.668065        -1.036201         0.191506
 H        -0.687586         0.621196         0.424222
 H        -0.428240         0.023623        -1.163074
 H         1.853964        -0.066425         2.274218
 H         1.997032        -1.661158         1.434253
 H         4.070442         0.546077         1.560260
 H         4.260542        -1.185561         0.983398
 H         4.464501         2.277647        -0.789609
 H         4.012747         1.422341        -2.327421
 H         2.159345         2.033437         0.913156
