19
Iteration:  4547charge 0 multiplicity 1
 C        -0.076227        -0.104716        -0.060862
 C         1.416837         0.254233         0.157662
 C         1.821600         0.120411         1.584912
 C         3.426081         0.243098         1.333987
 C         3.304084         0.460156        -0.138349
 C         3.878438         0.887745        -1.468748
 O         2.558987         1.245320        -1.949561
 C         2.175017         1.429800        -0.475212
 O         2.328066        -0.710242        -0.443036
 H        -0.059050        -1.210993        -0.323811
 H        -0.827967         0.087903         0.781304
 H        -0.501248         0.469533        -0.967771
 H         1.271388         0.849512         2.228827
 H         1.649374        -0.919668         1.959256
 H         3.796209         1.176098         1.946266
 H         3.933012        -0.704053         1.615462
 H         4.530605         1.706195        -1.410893
 H         4.282178         0.045973        -2.049704
 H         1.937424         2.526847        -0.210986
