19
Iteration:   717
 C        -0.156797        -0.312697        -0.190864
 C         1.337901         0.103337         0.108120
 C         2.104395        -0.513298         1.372579
 C         3.626571        -0.393850         1.005957
 C         3.322071         0.442350        -0.172979
 C         3.699144         1.283425        -1.364289
 O         2.449100         2.004029        -1.238123
 C         2.125969         1.399180         0.113482
 O         2.285689        -0.360481        -1.062478
 H        -0.243867        -1.188354        -0.867200
 H        -0.715477        -0.517278         0.747353
 H        -0.569204         0.573144        -0.741099
 H         2.111213         0.126552         2.290972
 H         1.834689        -1.472124         1.684740
 H         4.159970         0.119274         1.852070
 H         4.108650        -1.239516         0.622973
 H         4.512833         2.158945        -1.209260
 H         3.795269         0.929042        -2.445698
 H         2.083235         2.222260         0.904276
