19
Iteration:   150charge 0 multiplicity 1
 C        -0.202155        -0.205628        -0.187495
 C         1.365038        -0.044773         0.032614
 C         2.168216        -0.639437         1.326472
 C         3.655040        -0.356910         0.909778
 C         3.236964         0.412231        -0.339576
 C         3.689068         1.512320        -1.247443
 O         2.446548         2.137795        -1.070329
 C         2.213488         1.286146         0.146018
 O         2.200920        -0.454164        -1.047195
 H        -0.197792        -0.558325        -1.276395
 H        -0.569102        -1.019004         0.435186
 H        -0.738401         0.719435        -0.114478
 H         1.822204        -0.066261         2.174129
 H         1.975749        -1.787520         1.389763
 H         4.138826         0.282225         1.619789
 H         4.355260        -1.239861         0.673700
 H         4.540154         2.159458        -1.031641
 H         3.899632         1.300451        -2.370885
 H         2.445594         1.815334         1.194128
