19
Iteration:  3958charge 0 multiplicity 1
 C        -0.167180        -0.132581        -0.154483
 C         1.364400         0.180903         0.130063
 C         1.859842         0.202139         1.611501
 C         3.448439         0.350841         1.322467
 C         3.249361         0.358103        -0.143256
 C         3.890694         0.879720        -1.426071
 O         2.658522         1.350561        -1.841277
 C         2.091231         1.343836        -0.516233
 O         2.352906        -0.785233        -0.481046
 H        -0.295385        -1.195919        -0.047198
 H        -0.719834         0.371243         0.695378
 H        -0.624089         0.267691        -1.068103
 H         1.583405         1.038526         2.199995
 H         1.698661        -0.714402         2.173333
 H         3.823654         1.360837         1.679288
 H         4.130260        -0.448101         1.760695
 H         4.671922         1.721673        -1.270168
 H         4.281626         0.041038        -2.144610
 H         1.978440         2.388697        -0.222486
