19
Iteration:   295
 C        -0.035139        -0.241496        -0.204808
 C         1.408631         0.075810         0.096769
 C         2.101370        -0.629423         1.363917
 C         3.581501        -0.456638         1.065430
 C         3.283733         0.412742        -0.198718
 C         3.658579         1.358500        -1.397880
 O         2.406678         2.095680        -1.200023
 C         2.121660         1.394824         0.079963
 O         2.279948        -0.303738        -1.063172
 H        -0.386837        -0.684847         0.698060
 H        -0.549499         0.658438        -0.483806
 H         0.056336        -1.013535        -0.972726
 H         1.634827        -0.204431         2.278578
 H         1.911515        -1.674203         1.351038
 H         4.211039         0.021546         1.845606
 H         4.112074        -1.315407         0.867976
 H         4.488535         1.985942        -1.319802
 H         3.681692         0.629650        -2.188663
 H         1.954292         2.074919         0.971463
