19
Iteration:  1344charge 0 multiplicity 1
 C        -0.154925        -0.217310        -0.080839
 C         1.366984         0.035900         0.043086
 C         2.089323        -0.497362         1.362160
 C         3.566758        -0.343474         0.945371
 C         3.278338         0.392687        -0.351616
 C         3.826932         1.430026        -1.238472
 O         2.396220         2.060788        -1.208475
 C         2.136790         1.338121        -0.023457
 O         2.314220        -0.538541        -0.987030
 H        -0.471752        -1.215335        -0.470711
 H        -0.433908        -0.008405         0.958166
 H        -0.538794         0.633293        -0.658970
 H         1.538598        -0.064045         2.246519
 H         1.784552        -1.519621         1.335391
 H         4.263357         0.215141         1.574489
 H         4.014958        -1.287052         0.748446
 H         4.536888         2.040225        -0.607327
 H         4.211388         1.342805        -2.242471
 H         1.951440         1.949620         0.858543
