19
Iteration:  4111charge 0 multiplicity 1
 C        -0.128726        -0.128834        -0.061423
 C         1.371895         0.264897         0.099193
 C         1.865647         0.049534         1.592025
 C         3.455742         0.299007         1.383656
 C         3.224352         0.487314        -0.144393
 C         3.903615         0.850695        -1.434061
 O         2.615414         1.323632        -1.956268
 C         2.099797         1.456824        -0.470293
 O         2.361104        -0.779542        -0.485457
 H        -0.431786        -0.637375         0.864263
 H        -0.735003         0.905481        -0.153037
 H        -0.220139        -0.769473        -0.972564
 H         1.335314         0.675331         2.442460
 H         1.658325        -1.093272         1.867321
 H         3.742039         1.343509         1.860106
 H         4.006314        -0.616448         1.745351
 H         4.642302         1.665429        -1.333582
 H         4.389577         0.053882        -2.087584
 H         2.034101         2.491747        -0.258093
