19
Iteration:  2463charge 0 multiplicity 1
 C        -0.159223        -0.150415        -0.067744
 C         1.388739         0.016165         0.123761
 C         2.040872        -0.596609         1.394232
 C         3.562528        -0.300241         1.003460
 C         3.331573         0.457595        -0.233781
 C         3.803498         1.424328        -1.400167
 O         2.468302         1.873140        -1.417750
 C         2.069858         1.435459        -0.023581
 O         2.313786        -0.437453        -0.855608
 H        -0.627128         0.822662        -0.422895
 H        -0.372611        -0.926862        -0.864806
 H        -0.639391        -0.451983         0.847510
 H         1.570146        -0.234491         2.246446
 H         1.893888        -1.663431         1.476517
 H         4.091494         0.077068         1.858430
 H         4.119256        -1.213294         0.780322
 H         4.491032         2.246856        -1.017964
 H         4.079404         0.699267        -2.184590
 H         1.975527         2.344892         0.591265
