19
Iteration:  1947charge 0 multiplicity 1
 C        -0.071957        -0.260084        -0.230185
 C         1.401299         0.030710         0.200186
 C         2.024130        -0.543585         1.448762
 C         3.561958        -0.393285         0.961798
 C         3.274065         0.401844        -0.305048
 C         3.731077         1.423351        -1.404991
 O         2.449471         2.074638        -1.297603
 C         2.178552         1.436284         0.022323
 O         2.251343        -0.449592        -0.840721
 H        -0.130115        -1.323314        -0.169651
 H        -0.773300         0.328021         0.359771
 H        -0.140460        -0.126751        -1.329140
 H         1.772893        -0.031270         2.456957
 H         1.749720        -1.652108         1.551238
 H         4.296495         0.047447         1.632774
 H         3.947147        -1.445407         0.695252
 H         4.606539         2.049071        -1.182778
 H         3.953762         0.935354        -2.378977
 H         1.858823         2.190391         0.762683
