19
Iteration:  4798charge 0 multiplicity 1
 C        -0.161892        -0.112074        -0.032075
 C         1.312864         0.053135         0.022313
 C         1.869542         0.263972         1.476821
 C         3.481403         0.225831         1.284448
 C         3.296533         0.414850        -0.169289
 C         3.945416         0.891035        -1.381924
 O         2.566655         1.452386        -1.812166
 C         2.146178         1.337389        -0.423816
 O         2.338220        -0.820855        -0.470798
 H        -0.538720        -1.102804         0.304474
 H        -0.470514         0.761796         0.446686
 H        -0.437849         0.033049        -1.083651
 H         1.569840         1.298774         1.905007
 H         1.489778        -0.643263         2.125292
 H         3.954932         1.060586         1.857304
 H         3.831616        -0.643117         1.799314
 H         4.679523         1.788407        -1.440756
 H         4.265880         0.182085        -2.185283
 H         2.049298         2.341667        -0.030891
