19
Iteration:  4486
 C        -0.114019        -0.212144        -0.233183
 C         1.272757         0.140908         0.165541
 C         1.897135         0.297495         1.707316
 C         3.471697         0.334651         1.271038
 C         3.211042         0.254639        -0.301579
 C         3.882855         0.792349        -1.518749
 O         2.614067         1.605634        -1.758870
 C         2.155740         1.387351        -0.443857
 O         2.366107        -0.859509        -0.391931
 H        -0.656351        -0.824351         0.516183
 H        -0.698142         0.682530        -0.216620
 H        -0.096919        -0.731371        -1.188579
 H         1.345108         1.209379         2.097612
 H         1.699952        -0.629885         2.328468
 H         3.857465         1.224425         1.653294
 H         4.079324        -0.533567         1.518568
 H         4.919134         1.424379        -1.311702
 H         4.053105         0.129242        -2.394754
 H         2.040442         2.247461         0.145662
