19
Iteration:   692
 C        -0.061960        -0.260580        -0.174194
 C         1.337315         0.046430         0.113073
 C         2.088348        -0.526571         1.421123
 C         3.559826        -0.345364         0.981481
 C         3.205967         0.348362        -0.412611
 C         3.754139         1.426318        -1.376692
 O         2.503913         2.209311        -1.224520
 C         2.109428         1.364368         0.036320
 O         2.254993        -0.613935        -0.866119
 H        -0.092873        -0.958671        -0.993143
 H        -0.632406        -0.657314         0.627041
 H        -0.479412         0.630111        -0.598156
 H         1.756624         0.026245         2.332904
 H         1.824037        -1.582327         1.563697
 H         4.136064         0.335931         1.608641
 H         4.111830        -1.310819         0.836273
 H         4.636041         2.084044        -0.938304
 H         3.944153         1.265386        -2.455170
 H         2.279160         2.113539         0.900804
