19
Iteration:  2655
 C        -0.046208        -0.247226        -0.227887
 C         1.361486         0.053012         0.072881
 C         2.068019        -0.447914         1.426393
 C         3.591281        -0.290585         1.053733
 C         3.249408         0.331907        -0.343972
 C         3.682163         1.345813        -1.385098
 O         2.399981         2.123631        -1.239125
 C         2.206321         1.401513         0.066479
 O         2.266046        -0.590951        -0.877304
 H        -0.033349        -0.339250        -1.333955
 H        -0.367815        -1.220394         0.059382
 H        -0.637044         0.696110         0.028728
 H         1.806202         0.178533         2.268684
 H         1.772897        -1.448240         1.665364
 H         4.300276         0.215383         1.623971
 H         4.070672        -1.291458         0.800224
 H         4.702308         1.993800        -1.254755
 H         3.554703         0.978007        -2.388930
 H         2.365807         2.064004         0.943119
