19
Iteration:  1170
 C        -0.135937        -0.207365        -0.044610
 C         1.330913         0.074108         0.080741
 C         2.036875        -0.688134         1.297406
 C         3.599436        -0.370285         1.013191
 C         3.302371         0.463149        -0.173041
 C         3.783969         1.422483        -1.388026
 O         2.468633         2.000318        -1.264508
 C         2.094989         1.418818        -0.002268
 O         2.328316        -0.433618        -0.953753
 H        -0.273574        -1.268607        -0.068034
 H        -0.685174         0.218295         0.750525
 H        -0.488913         0.243098        -0.955683
 H         1.402791        -0.371649         2.211264
 H         1.823832        -1.698377         1.078164
 H         4.205671         0.224246         1.686384
 H         4.195368        -1.157999         0.626422
 H         4.414115         2.337056        -1.235161
 H         4.059673         0.931049        -2.317637
 H         1.992575         2.231488         0.811782
