19
Iteration:  4095charge 0 multiplicity 1
 C        -0.101056        -0.173175        -0.089454
 C         1.332983         0.199469         0.121183
 C         1.857075         0.136631         1.603915
 C         3.403020         0.310105         1.434632
 C         3.340159         0.433828        -0.146842
 C         3.900912         0.779007        -1.462674
 O         2.580338         1.359155        -1.873083
 C         2.145420         1.324729        -0.512991
 O         2.345237        -0.590813        -0.523763
 H        -0.494654        -0.903902         0.640326
 H        -0.759705         0.653643        -0.069370
 H        -0.198276        -0.553582        -1.118991
 H         1.403222         0.850565         2.338179
 H         1.741692        -0.845842         1.972333
 H         3.886426         1.092923         1.905724
 H         4.016317        -0.582954         1.595634
 H         4.577239         1.632077        -1.619715
 H         4.098545        -0.095103        -2.027532
 H         1.931808         2.414909        -0.152544
