19
Iteration:   976
 C         0.000494        -0.190121        -0.225367
 C         1.421939         0.024391         0.117566
 C         2.028650        -0.587993         1.414436
 C         3.576776        -0.422754         0.956459
 C         3.327127         0.438340        -0.304695
 C         3.676276         1.476338        -1.392222
 O         2.418186         2.172451        -1.289255
 C         2.130615         1.369982         0.122588
 O         2.228241        -0.602182        -0.878365
 H        -0.189537        -1.302015        -0.371338
 H        -0.544144         0.093992         0.706194
 H        -0.293306         0.426871        -1.124864
 H         1.743802         0.019923         2.333372
 H         1.857625        -1.584145         1.653751
 H         4.213769         0.126107         1.724839
 H         3.913433        -1.443342         0.709711
 H         4.645936         2.095787        -1.107083
 H         3.770828         1.139306        -2.439039
 H         2.138654         2.114162         0.826240
