19
Iteration:  4072charge 0 multiplicity 1
 C        -0.073239        -0.201382        -0.197492
 C         1.337247         0.127349         0.138164
 C         1.806786         0.308543         1.622153
 C         3.455393         0.266060         1.342476
 C         3.271897         0.404599        -0.178210
 C         3.832647         0.788150        -1.518556
 O         2.597357         1.452506        -1.827996
 C         2.167110         1.429382        -0.423939
 O         2.375796        -0.802760        -0.428998
 H        -0.253314        -1.225556         0.220063
 H        -0.829503         0.376344         0.200325
 H        -0.218973        -0.215929        -1.274661
 H         1.516845         1.269923         2.067977
 H         1.446140        -0.496806         2.236785
 H         3.945130         1.126120         1.707218
 H         4.072426        -0.584438         1.603260
 H         4.676439         1.533490        -1.462836
 H         3.894080        -0.006937        -2.272717
 H         2.159428         2.433165         0.163090
