19
Iteration:  1853
 C        -0.058331        -0.149133        -0.212014
 C         1.312711         0.078320         0.112368
 C         2.144941        -0.495093         1.392877
 C         3.591542        -0.330496         0.939723
 C         3.243458         0.440188        -0.303878
 C         3.738682         1.368757        -1.273796
 O         2.370191         1.987501        -1.220409
 C         2.151084         1.329142         0.000413
 O         2.301209        -0.522777        -0.919191
 H        -0.131186        -1.158779        -0.759287
 H        -0.727659        -0.130648         0.658955
 H        -0.483515         0.502469        -1.024560
 H         1.873342         0.094871         2.232722
 H         1.901978        -1.485425         1.615285
 H         4.118151         0.257785         1.713497
 H         4.101940        -1.279038         0.784031
 H         4.551986         2.045990        -0.991377
 H         3.984399         0.868595        -2.193814
 H         2.121516         2.055370         0.825644
