19
Iteration:  4157
 C        -0.118576        -0.117342        -0.168617
 C         1.363448         0.093132         0.073038
 C         1.960330         0.290100         1.610015
 C         3.407693         0.304741         1.364727
 C         3.292211         0.257439        -0.133028
 C         3.874223         0.871201        -1.467669
 O         2.518297         1.489666        -1.830167
 C         2.147382         1.376057        -0.413158
 O         2.369941        -0.852978        -0.527366
 H        -0.516796        -0.748490         0.687860
 H        -0.668360         0.856967        -0.206968
 H        -0.244047        -0.682215        -1.100144
 H         1.620714         1.262083         1.969601
 H         1.416160        -0.477798         2.317868
 H         3.818137         1.339087         1.693265
 H         3.867642        -0.543373         1.812518
 H         4.688840         1.625703        -1.286492
 H         4.288274         0.115550        -2.238614
 H         1.950388         2.233629         0.173743
