19
Iteration:  2238
 C        -0.098036        -0.328129        -0.246127
 C         1.334895         0.090310         0.177939
 C         2.095747        -0.509609         1.418620
 C         3.541444        -0.396708         0.995815
 C         3.221298         0.408902        -0.260839
 C         3.745176         1.388636        -1.433672
 O         2.523859         2.117726        -1.233981
 C         2.165534         1.448952         0.015427
 O         2.234287        -0.499853        -0.883864
 H        -0.231098        -1.269282         0.185502
 H        -0.740996         0.310780         0.278507
 H        -0.041022        -0.232034        -1.256593
 H         1.844959        -0.087733         2.391075
 H         1.799160        -1.578244         1.314600
 H         4.249972         0.198470         1.710316
 H         4.091252        -1.256030         0.646708
 H         4.630908         2.018368        -1.367342
 H         3.664544         0.756653        -2.330344
 H         2.072773         2.139530         0.806685
