19
Iteration:  1872charge 0 multiplicity 1
 C        -0.148213        -0.164639        -0.144292
 C         1.351127        -0.009488         0.059683
 C         2.069116        -0.567591         1.432439
 C         3.650229        -0.253420         1.018537
 C         3.351586         0.275635        -0.318765
 C         3.760587         1.457501        -1.323535
 O         2.450114         2.096391        -1.304401
 C         2.064712         1.369061        -0.000221
 O         2.240767        -0.607445        -0.930893
 H        -0.326495        -0.965057        -0.804129
 H        -0.556011        -0.044325         0.827134
 H        -0.387262         0.811925        -0.618802
 H         1.661997        -0.005912         2.281977
 H         1.875961        -1.625101         1.516277
 H         4.128534         0.548486         1.633034
 H         4.200478        -1.316309         1.004578
 H         4.458552         2.154239        -0.728381
 H         4.190176         1.392465        -2.359679
 H         2.053016         2.040498         0.815955
