19
Iteration:  4951charge 0 multiplicity 1
 C        -0.165255        -0.123362        -0.058676
 C         1.344683         0.154572         0.163328
 C         1.875539         0.083090         1.608208
 C         3.399310         0.308976         1.339843
 C         3.274494         0.394451        -0.246863
 C         3.983662         0.872792        -1.483034
 O         2.634981         1.477246        -1.947593
 C         2.086799         1.315465        -0.438458
 O         2.327620        -0.723090        -0.454060
 H        -0.540407        -0.627018         0.930772
 H        -0.759223         0.774748        -0.157832
 H        -0.195171        -0.839432        -0.882339
 H         1.460423         0.678768         2.492901
 H         1.797124        -1.002410         2.054004
 H         3.917615         1.212185         1.809017
 H         3.919697        -0.613249         1.514196
 H         4.571208         1.687841        -1.161504
 H         4.372779         0.236891        -2.257415
 H         2.015568         2.434513        -0.045694
