19
Iteration:  4560charge 0 multiplicity 1
 C        -0.074368        -0.093617        -0.124605
 C         1.275399         0.214624         0.088196
 C         1.933882         0.164836         1.600477
 C         3.498965         0.315862         1.396406
 C         3.286532         0.464193        -0.129373
 C         3.930766         0.834726        -1.457394
 O         2.587727         1.343111        -1.879266
 C         2.061716         1.342722        -0.529789
 O         2.268599        -0.782712        -0.455581
 H        -0.142405        -1.208127        -0.450226
 H        -0.568154        -0.025419         0.839426
 H        -0.624433         0.522220        -0.908810
 H         1.712032         0.892335         2.324135
 H         1.439278        -0.803739         1.972825
 H         4.044863         1.201187         1.917947
 H         4.142741        -0.563227         1.667777
 H         4.596213         1.597349        -1.353047
 H         4.318675         0.112710        -2.147811
 H         1.973360         2.464699        -0.144800
