19
Iteration:  1413
 C        -0.092849        -0.200145        -0.226716
 C         1.387641         0.025731         0.093580
 C         2.106813        -0.531994         1.362014
 C         3.667864        -0.327454         1.022162
 C         3.296091         0.376262        -0.273696
 C         3.637940         1.352763        -1.348396
 O         2.421058         2.200649        -1.194299
 C         2.143341         1.338728         0.077566
 O         2.217798        -0.539065        -0.974775
 H        -0.538016        -1.179465        -0.094853
 H        -0.716742         0.637842         0.094898
 H        -0.078552        -0.098300        -1.312875
 H         1.977121        -0.274319         2.491306
 H         1.890137        -1.669232         1.414388
 H         4.240270         0.186340         1.719371
 H         4.114549        -1.347209         0.974295
 H         4.548798         2.044454        -1.200306
 H         3.909634         0.799082        -2.346130
 H         2.209189         2.023246         0.983260
