19
Iteration:  4740
 C        -0.079759        -0.250321        -0.175125
 C         1.290802         0.255386         0.101131
 C         1.868752         0.153061         1.562869
 C         3.505293         0.294507         1.289660
 C         3.254911         0.394238        -0.172921
 C         3.848778         0.726059        -1.506701
 O         2.627865         1.469446        -1.764346
 C         2.191979         1.442711        -0.391982
 O         2.295800        -0.680551        -0.435537
 H        -0.515380        -0.684691         0.676080
 H        -0.912049         0.474130        -0.461521
 H        -0.016032        -0.988965        -1.003633
 H         1.463775         0.975097         2.303342
 H         1.661789        -0.800596         2.105057
 H         3.977733         1.080861         1.885207
 H         3.856305        -0.737254         1.576727
 H         4.612352         1.468057        -1.580479
 H         3.880618        -0.049825        -2.270744
 H         2.197085         2.539529        -0.022595
