19
Iteration:  2841
 C        -0.168979        -0.139161        -0.176039
 C         1.376959         0.038720         0.074825
 C         2.080350        -0.421090         1.457786
 C         3.626208        -0.207206         1.067205
 C         3.307651         0.335186        -0.332886
 C         3.757674         1.301646        -1.320564
 O         2.462537         1.954509        -1.349580
 C         2.074935         1.356699        -0.047946
 O         2.330570        -0.570104        -0.889363
 H        -0.942414        -0.552545         0.628681
 H        -0.652271         0.882065        -0.238500
 H        -0.365823        -0.738943        -1.144842
 H         1.981324         0.125875         2.403101
 H         1.780853        -1.415757         1.676081
 H         3.901253         0.501533         1.813572
 H         4.228687        -1.156600         1.146962
 H         4.506072         1.924610        -0.936132
 H         3.924353         0.921388        -2.304873
 H         1.842680         2.279128         0.599274
