19
Iteration:  4262
 C        -0.142080        -0.047545        -0.053484
 C         1.394592         0.071007         0.107774
 C         1.821331         0.245079         1.591322
 C         3.413097         0.288363         1.378896
 C         3.305222         0.276475        -0.140745
 C         3.918749         0.930761        -1.481612
 O         2.600388         1.476732        -1.964321
 C         2.093183         1.324912        -0.531430
 O         2.381624        -0.882079        -0.430095
 H        -0.270373        -0.981173        -0.515995
 H        -0.648561         0.242030         0.967104
 H        -0.351333         0.793876        -0.695040
 H         1.205301         1.040826         2.136100
 H         1.680828        -0.717265         2.089789
 H         3.932291         1.139997         1.893183
 H         3.991228        -0.528118         1.905357
 H         4.529023         1.859639        -1.016408
 H         4.520940         0.262598        -2.155825
 H         1.604217         2.372435        -0.264656
