19
Iteration:   665charge 0 multiplicity 1
 C        -0.164002        -0.168215        -0.089835
 C         1.372118         0.013389        -0.002295
 C         2.062717        -0.535128         1.353183
 C         3.603303        -0.245970         1.012363
 C         3.276159         0.328650        -0.350016
 C         3.784135         1.435292        -1.308334
 O         2.438830         2.154120        -1.206555
 C         2.129380         1.306207         0.010896
 O         2.285027        -0.638717        -0.948329
 H        -0.328459        -0.947487        -0.885372
 H        -0.538955        -0.455601         0.948986
 H        -0.558324         0.820854        -0.479937
 H         1.591445        -0.082170         2.239506
 H         1.932180        -1.649330         1.510431
 H         4.137687         0.499163         1.650431
 H         4.258756        -1.119482         0.995222
 H         4.514600         2.097867        -1.006829
 H         3.944505         1.143259        -2.353414
 H         2.243095         1.940187         0.838941
