19
Iteration:  4764
 C        -0.069746        -0.311440        -0.114779
 C         1.330184         0.302624         0.174520
 C         1.893935         0.187253         1.709061
 C         3.386431         0.107142         1.377969
 C         3.254458         0.407189        -0.186382
 C         3.935663         0.786915        -1.517499
 O         2.630757         1.460205        -1.981130
 C         2.163620         1.483551        -0.414366
 O         2.271832        -0.621292        -0.469484
 H        -0.600583        -0.974709         0.561311
 H        -0.877271         0.362985        -0.308593
 H         0.118310        -0.765168        -1.115761
 H         1.440304         0.928106         2.502650
 H         1.571434        -0.840348         2.190196
 H         3.853983         1.008627         1.843512
 H         3.915897        -0.815183         1.653969
 H         4.703907         1.637222        -1.533697
 H         4.002570         0.010187        -2.319863
 H         2.247890         2.555161        -0.118459
