19
Iteration:  4447
 C        -0.049503        -0.212715        -0.077082
 C         1.375556         0.206131         0.060068
 C         1.838029         0.182276         1.584735
 C         3.413633         0.286945         1.332530
 C         3.240887         0.374598        -0.159704
 C         3.871996         0.723552        -1.507726
 O         2.591735         1.507798        -1.787224
 C         2.134110         1.457173        -0.424207
 O         2.362948        -0.742945        -0.512115
 H        -0.351173        -0.606678         0.883141
 H        -0.788228         0.543669        -0.568586
 H        -0.115180        -1.041851        -0.801081
 H         1.421973         1.025536         2.175089
 H         1.525719        -0.691325         2.079497
 H         4.101091         1.118145         1.715621
 H         3.893956        -0.637970         1.739784
 H         4.583219         1.442786        -1.421573
 H         4.121075        -0.060977        -2.218939
 H         1.989278         2.539002        -0.008466
