19
Iteration:   822
 C        -0.139360        -0.234476        -0.168089
 C         1.409774         0.036087         0.136991
 C         1.987538        -0.612429         1.370391
 C         3.560488        -0.394714         0.953435
 C         3.271393         0.463289        -0.278342
 C         3.696649         1.453635        -1.493092
 O         2.454544         2.106865        -1.225411
 C         2.208361         1.392236         0.064763
 O         2.368589        -0.482559        -0.844843
 H        -0.495297        -1.080453         0.494296
 H        -0.884093         0.578326        -0.040707
 H        -0.370649        -0.635510        -1.170471
 H         1.792249        -0.347455         2.466572
 H         1.716296        -1.644261         1.207905
 H         4.129345        -0.013875         1.851251
 H         4.112346        -1.282415         0.604150
 H         4.425484         2.187100        -1.267681
 H         3.779441         1.098735        -2.486077
 H         2.237378         2.023001         0.930869
