19
Iteration:  3384
 C        -0.041797        -0.115977        -0.224492
 C         1.332471         0.104604         0.047059
 C         1.947241        -0.041896         1.583150
 C         3.511007         0.095661         1.279708
 C         3.253113         0.267970        -0.205485
 C         3.840653         0.999632        -1.523614
 O         2.477536         1.770821        -1.619615
 C         2.105108         1.396045        -0.225510
 O         2.352272        -0.780682        -0.634915
 H        -0.258989        -1.205667        -0.283909
 H        -0.591601         0.204609         0.679062
 H        -0.457909         0.353537        -1.060360
 H         1.594965         0.807873         2.220293
 H         1.767128        -0.991127         2.080151
 H         3.873747         1.034771         1.697317
 H         4.236010        -0.721181         1.541011
 H         4.673431         1.735187        -1.264021
 H         4.118523         0.300686        -2.284355
 H         1.941871         2.252459         0.465050
