19
Iteration:  4769
 C        -0.067781        -0.249772        -0.108624
 C         1.294994         0.272898         0.139434
 C         1.902285         0.183608         1.716473
 C         3.398285         0.136876         1.365180
 C         3.220691         0.394298        -0.212579
 C         3.924220         0.803647        -1.492184
 O         2.653887         1.435929        -1.956827
 C         2.115828         1.461550        -0.381914
 O         2.330781        -0.640992        -0.513338
 H        -0.446363        -1.045361         0.628993
 H        -0.917721         0.502666        -0.169330
 H         0.031504        -0.732006        -1.067641
 H         1.615338         0.947091         2.346110
 H         1.552345        -0.663455         2.214838
 H         3.928168         0.902738         1.952761
 H         3.769558        -0.801780         1.811397
 H         4.641586         1.636677        -1.556433
 H         4.038108         0.053818        -2.264495
 H         2.124432         2.529443        -0.197993
