19
Iteration:  3621
 C        -0.098089        -0.224670        -0.146542
 C         1.337723         0.173771         0.109492
 C         1.893876         0.149015         1.568842
 C         3.469475         0.205046         1.295587
 C         3.239808         0.257922        -0.250809
 C         3.814671         0.948790        -1.483268
 O         2.589346         1.676245        -1.702341
 C         2.202253         1.335438        -0.290648
 O         2.348316        -0.775469        -0.552418
 H        -0.622154        -0.898446         0.591000
 H        -0.788445         0.613750        -0.501300
 H        -0.001368        -0.838110        -1.066286
 H         1.678188         1.065650         2.044365
 H         1.417365        -0.718341         2.179110
 H         3.841442         1.125104         1.707848
 H         3.940020        -0.726099         1.565833
 H         4.791645         1.495252        -1.428408
 H         3.784990         0.191910        -2.415081
 H         2.193057         2.219402         0.260774
