19
Iteration:  2093
 C        -0.153267        -0.253414        -0.178777
 C         1.388737         0.014358         0.067351
 C         2.065777        -0.335469         1.409417
 C         3.548134        -0.377508         0.978917
 C         3.271965         0.368898        -0.294438
 C         3.709163         1.385681        -1.393432
 O         2.457736         2.175743        -1.219208
 C         2.235884         1.341874         0.011355
 O         2.277836        -0.672521        -0.878807
 H        -0.233483        -1.154652        -0.823109
 H        -0.638610        -0.567971         0.729602
 H        -0.514690         0.581052        -0.722283
 H         1.879954         0.405133         2.287070
 H         1.595518        -1.310098         1.706849
 H         4.279658         0.252586         1.684688
 H         4.182974        -1.299236         0.740770
 H         4.421272         2.210236        -1.074031
 H         3.861835         1.163315        -2.480904
 H         2.145400         2.038755         0.811290
