19
Iteration:   967charge 0 multiplicity 1
 C         0.015150        -0.177467        -0.209372
 C         1.384885         0.057482         0.223289
 C         2.065918        -0.587052         1.363270
 C         3.568307        -0.391627         0.979765
 C         3.257133         0.373395        -0.278666
 C         3.698540         1.402278        -1.369459
 O         2.390700         2.158650        -1.298371
 C         2.111655         1.388979         0.049335
 O         2.279439        -0.508073        -0.875212
 H         0.051504        -1.226345        -0.572264
 H        -0.817903        -0.157915         0.522160
 H        -0.351009         0.407521        -1.071254
 H         1.822689        -0.134162         2.380603
 H         1.787863        -1.682470         1.391904
 H         4.298701        -0.075911         1.746757
 H         4.093931        -1.222291         0.461892
 H         4.566724         2.062720        -1.186425
 H         3.823157         0.947402        -2.379771
 H         2.323405         1.996152         0.885895
