19
Iteration:  4671charge 0 multiplicity 1
 C        -0.114465        -0.053017        -0.138013
 C         1.323113         0.190710         0.119961
 C         1.935564         0.133771         1.630706
 C         3.485428         0.256738         1.403982
 C         3.269438         0.348251        -0.162301
 C         3.874726         0.897344        -1.416270
 O         2.539775         1.308807        -1.920198
 C         2.143249         1.395340        -0.510808
 O         2.327942        -0.713439        -0.483489
 H        -0.316249        -1.122655         0.235808
 H        -0.846748         0.594952         0.423252
 H        -0.252895        -0.086186        -1.210685
 H         1.544832         0.967691         2.211459
 H         1.498216        -0.777914         2.053679
 H         4.028361         1.162902         1.772592
 H         4.105284        -0.673201         1.593621
 H         4.466104         1.685530        -1.062602
 H         4.354703         0.306011        -2.152866
 H         2.080147         2.462074        -0.047174
