19
Iteration:   300charge 0 multiplicity 1
 C        -0.047264        -0.243168        -0.234376
 C         1.402090         0.095859         0.145047
 C         2.118574        -0.636866         1.350593
 C         3.567375        -0.470409         1.081051
 C         3.311320         0.451596        -0.220982
 C         3.617752         1.345955        -1.427513
 O         2.430057         2.106022        -1.202321
 C         2.119716         1.396569         0.117366
 O         2.274750        -0.336195        -1.058483
 H        -0.370610        -0.837494         0.699745
 H        -0.585208         0.713850        -0.489289
 H         0.115863        -0.933370        -1.102829
 H         1.702764        -0.174860         2.255119
 H         1.816391        -1.737292         1.512927
 H         4.122728         0.111007         1.817480
 H         4.215767        -1.451097         0.920057
 H         4.528124         2.044628        -1.231221
 H         3.749169         0.701724        -2.346092
 H         1.897078         2.091498         0.896262
