19
Iteration:  3948charge 0 multiplicity 1
 C        -0.078940        -0.131470        -0.157540
 C         1.312457         0.079777         0.063357
 C         1.897125         0.277795         1.615586
 C         3.451640         0.333919         1.303305
 C         3.313352         0.344122        -0.140211
 C         3.866277         0.863820        -1.397949
 O         2.600359         1.439626        -1.881514
 C         2.162483         1.264072        -0.458731
 O         2.280615        -0.746499        -0.444976
 H        -0.329459        -1.126608         0.090986
 H        -0.750897         0.424457         0.547467
 H        -0.357038         0.009802        -1.201855
 H         1.396047         1.122216         1.912584
 H         1.576613        -0.596612         2.255054
 H         3.830444         1.368626         1.600303
 H         4.056746        -0.501118         1.750227
 H         4.679522         1.646102        -1.150571
 H         4.269912        -0.019497        -2.094391
 H         1.991986         2.273791         0.066807
