19
Iteration:  3940charge 0 multiplicity 1
 C        -0.089040        -0.181107        -0.157882
 C         1.344821         0.109898         0.084143
 C         1.892172         0.322332         1.587100
 C         3.430053         0.344039         1.368749
 C         3.283851         0.322423        -0.210695
 C         3.924104         0.810235        -1.427643
 O         2.552499         1.494340        -1.870693
 C         2.157696         1.288329        -0.406962
 O         2.289802        -0.802385        -0.451776
 H        -0.374592        -1.202670         0.103931
 H        -0.651127         0.638791         0.271748
 H        -0.143635        -0.146621        -1.235149
 H         1.474072         1.274101         1.984071
 H         1.470596        -0.510394         2.284660
 H         3.991709         1.213667         1.708708
 H         3.930426        -0.491947         1.751821
 H         4.611377         1.600647        -1.273635
 H         4.353810         0.172883        -2.205458
 H         2.085548         2.260614         0.214924
