19
Iteration:  3546charge 0 multiplicity 1
 C        -0.073632        -0.118231        -0.103464
 C         1.379749         0.196144         0.109300
 C         1.912752        -0.078786         1.561323
 C         3.449506         0.057696         1.365672
 C         3.281567         0.462742        -0.145296
 C         3.811134         1.001793        -1.480979
 O         2.553167         1.470852        -1.751536
 C         2.130376         1.409625        -0.363876
 O         2.333947        -0.628934        -0.642714
 H        -0.749336         0.791011        -0.044998
 H        -0.123083        -0.678697        -1.067792
 H        -0.323863        -0.858350         0.632457
 H         1.611040         0.664515         2.255187
 H         1.503492        -1.119496         1.903017
 H         3.689966         0.954992         1.846769
 H         4.086169        -0.783041         1.537754
 H         4.535104         1.824866        -1.502117
 H         4.236466         0.193782        -2.141364
 H         2.192970         2.453915         0.064567
