19
Iteration:  2215charge 0 multiplicity 1
 C        -0.136236        -0.212161        -0.228750
 C         1.338770         0.021830         0.141149
 C         2.075175        -0.496271         1.418005
 C         3.616378        -0.350402         0.981152
 C         3.270354         0.367009        -0.315059
 C         3.726794         1.394376        -1.339550
 O         2.441548         2.148131        -1.205082
 C         2.129201         1.337637        -0.007413
 O         2.291363        -0.594996        -0.953496
 H        -0.507955        -0.925278         0.439695
 H        -0.527639         0.690358         0.138102
 H        -0.134522        -0.279914        -1.215454
 H         1.789893         0.304558         2.151407
 H         1.885521        -1.534873         1.799154
 H         4.290621         0.454373         1.515763
 H         4.132356        -1.303753         0.904278
 H         4.500774         1.998329        -0.904335
 H         3.913026         1.086970        -2.380806
 H         2.227580         2.017957         0.787942
