19
Iteration:   203charge 0 multiplicity 1
 C        -0.158098        -0.241935        -0.178987
 C         1.399154         0.012291         0.085830
 C         2.047053        -0.648994         1.314571
 C         3.634444        -0.456389         0.976911
 C         3.327164         0.447992        -0.258159
 C         3.731211         1.446698        -1.365917
 O         2.371506         2.173140        -1.153623
 C         2.187777         1.393624         0.088737
 O         2.301993        -0.423531        -0.981880
 H        -0.498166         0.668644        -0.719418
 H        -0.296329        -1.154753        -0.739480
 H        -0.414632        -0.405989         0.833098
 H         1.738135        -0.428795         2.324594
 H         1.848866        -1.786743         1.169823
 H         4.277727        -0.215639         1.806569
 H         4.014596        -1.502286         0.566731
 H         4.302410         2.312350        -1.067733
 H         3.745696         1.016405        -2.386946
 H         2.027660         2.182499         0.921918
