19
Iteration:  3602charge 0 multiplicity 1
 C        -0.089900        -0.158829        -0.205012
 C         1.338599         0.022771         0.107605
 C         1.929274         0.155565         1.598710
 C         3.494527         0.199367         1.310506
 C         3.287061         0.347685        -0.242082
 C         3.870782         0.887996        -1.470395
 O         2.568831         1.673927        -1.707475
 C         2.107772         1.334174        -0.300992
 O         2.298575        -0.772379        -0.593931
 H        -0.645590        -0.342129         0.741494
 H        -0.582540         0.709771        -0.658911
 H        -0.412641        -1.015809        -0.713602
 H         1.526617         0.929520         2.199566
 H         1.786125        -0.796484         2.140671
 H         4.060550         1.033542         1.655129
 H         4.000518        -0.669147         1.687309
 H         4.552698         1.730137        -1.242995
 H         4.213035         0.245865        -2.239163
 H         1.916955         2.366785         0.160209
