19
Iteration:   986
 C        -0.075863        -0.193747        -0.170828
 C         1.388691        -0.039911         0.017045
 C         2.069997        -0.537231         1.463340
 C         3.589475        -0.434522         0.961381
 C         3.298059         0.438392        -0.319090
 C         3.685697         1.495952        -1.408248
 O         2.413351         2.122891        -1.173348
 C         2.200941         1.395291         0.025756
 O         2.267012        -0.594903        -0.925529
 H        -0.443267        -1.270315        -0.301456
 H        -0.634139         0.377524         0.592029
 H        -0.329285         0.346302        -1.143361
 H         1.839545         0.148650         2.313719
 H         1.692321        -1.469702         1.599619
 H         4.186529         0.160785         1.733555
 H         4.083445        -1.407703         0.954275
 H         4.495911         2.249605        -0.990566
 H         3.919144         1.074440        -2.392414
 H         1.966302         1.957063         0.878097
