19
Iteration:  1087charge 0 multiplicity 1
 C        -0.033296        -0.178607        -0.168510
 C         1.375625         0.039111         0.073011
 C         2.105114        -0.518803         1.430141
 C         3.602959        -0.425883         0.991325
 C         3.339946         0.415561        -0.250432
 C         3.702248         1.382730        -1.322570
 O         2.424308         2.110176        -1.208084
 C         2.030699         1.334763         0.061441
 O         2.277365        -0.513532        -1.047512
 H        -0.369661        -1.234092        -0.426160
 H        -0.658451         0.193088         0.727402
 H        -0.300727         0.475838        -1.043876
 H         1.641630         0.082037         2.202714
 H         1.709182        -1.551257         1.590724
 H         4.271454         0.182599         1.643647
 H         4.188502        -1.410656         0.825067
 H         4.624184         2.106444        -1.101247
 H         3.824389         1.055272        -2.421327
 H         1.909346         2.075488         0.814159
