19
Iteration:  2262charge 0 multiplicity 1
 C        -0.095965        -0.299052        -0.154301
 C         1.407672         0.082833         0.068521
 C         1.988198        -0.557582         1.352687
 C         3.596710        -0.358923         1.053396
 C         3.280471         0.390550        -0.245549
 C         3.722200         1.269562        -1.412989
 O         2.432359         2.065868        -1.277772
 C         2.204950         1.468137         0.058176
 O         2.264328        -0.359404        -0.924077
 H         0.065327        -1.365342        -0.189405
 H        -0.635396        -0.108540         0.794933
 H        -0.405441         0.219163        -1.107850
 H         1.704433        -0.062997         2.231251
 H         1.687775        -1.588017         1.317764
 H         4.053052         0.223671         1.883314
 H         4.217406        -1.242441         0.744770
 H         4.603608         1.936941        -1.116231
 H         3.816007         0.688993        -2.356217
 H         2.039322         2.165810         0.881301
