19
Iteration:    36charge 0 multiplicity 1
 C        -0.167564        -0.272305        -0.187261
 C         1.354039        -0.054393         0.060374
 C         2.091911        -0.593170         1.310218
 C         3.624650        -0.401566         0.882981
 C         3.263453         0.298469        -0.421346
 C         3.574504         1.547817        -1.334488
 O         2.536900         2.290692        -0.870160
 C         2.169869         1.284084         0.094338
 O         2.334759        -0.480524        -1.067637
 H        -0.761598        -0.619888         0.598933
 H        -0.445522         0.789015        -0.433743
 H        -0.342437        -0.832261        -1.148502
 H         1.775739        -0.187694         2.361679
 H         1.973281        -1.611726         1.265120
 H         4.363117         0.199081         1.567569
 H         4.042099        -1.351558         0.702338
 H         4.583967         2.070275        -1.146391
 H         3.397079         1.230167        -2.308094
 H         2.087258         1.759074         1.188373
