19
Iteration:  3292charge 0 multiplicity 1
 C        -0.159923        -0.079575        -0.092617
 C         1.312335         0.054106         0.119332
 C         1.999081        -0.151302         1.544602
 C         3.521444         0.017395         1.228788
 C         3.264615         0.321762        -0.227564
 C         3.834403         1.179507        -1.335884
 O         2.548585         1.755904        -1.696367
 C         2.124955         1.288586        -0.355461
 O         2.347245        -0.722652        -0.685722
 H        -0.665905         0.416555         0.693686
 H        -0.569787         0.386473        -0.987970
 H        -0.404893        -1.168022        -0.052852
 H         1.819703         0.707688         2.204685
 H         1.775408        -1.277804         1.954020
 H         3.988869         0.803245         1.832295
 H         4.041682        -0.872716         1.440896
 H         4.342265         2.079000        -1.067332
 H         4.213986         0.683560        -2.270045
 H         1.914232         2.229234         0.275718
