19
Iteration:  4406charge 0 multiplicity 1
 C        -0.204364        -0.089335        -0.148980
 C         1.325630         0.184764         0.102227
 C         1.890149         0.159854         1.664273
 C         3.496804         0.188244         1.375873
 C         3.348874         0.415987        -0.157746
 C         3.903811         0.978076        -1.462855
 O         2.589184         1.298444        -1.901761
 C         2.151972         1.424464        -0.525666
 O         2.295135        -0.771612        -0.445805
 H        -0.529469        -0.422900         0.860879
 H        -0.665260         0.779754        -0.545294
 H        -0.259314        -0.957495        -0.854677
 H         1.494297         0.862933         2.381269
 H         1.681048        -0.884648         2.056298
 H         3.947730         1.088353         1.938331
 H         4.099729        -0.701108         1.543534
 H         4.536361         1.990187        -1.186589
 H         4.419238         0.419544        -2.311214
 H         1.723644         2.325271        -0.001425
