19
Iteration:  4032
 C        -0.126844        -0.249110        -0.242934
 C         1.332415         0.189526         0.153789
 C         1.829315         0.317003         1.680592
 C         3.500480         0.343191         1.293267
 C         3.244305         0.328188        -0.146414
 C         3.814711         0.837930        -1.549918
 O         2.630568         1.463042        -1.815336
 C         2.195231         1.343151        -0.431468
 O         2.336354        -0.832673        -0.400246
 H        -0.118390        -1.262829        -0.698721
 H        -0.914488        -0.060326         0.548068
 H        -0.377431         0.402233        -1.140849
 H         1.513264         1.417935         1.983659
 H         1.467664        -0.392326         2.400013
 H         3.919800         1.268320         1.693582
 H         4.084782        -0.546434         1.678665
 H         4.678595         1.478347        -1.424347
 H         4.134441         0.054043        -2.196898
 H         2.217421         2.310791         0.017848
