19
Iteration:  2459charge 0 multiplicity 1
 C        -0.163176        -0.130653        -0.069624
 C         1.381201         0.009828         0.137486
 C         2.004063        -0.563269         1.402699
 C         3.577061        -0.325312         1.001841
 C         3.319262         0.464005        -0.218893
 C         3.795578         1.429815        -1.368322
 O         2.466316         1.888441        -1.412583
 C         2.067621         1.420589        -0.070426
 O         2.331456        -0.464560        -0.889539
 H        -0.535687         0.813015        -0.379691
 H        -0.358329        -0.938692        -0.708796
 H        -0.598029        -0.518273         0.902084
 H         1.690634        -0.278445         2.523429
 H         2.018295        -1.661145         1.396724
 H         4.025154         0.220107         1.853299
 H         4.056541        -1.380801         0.743143
 H         4.442530         2.248650        -1.125133
 H         4.233151         0.861261        -2.202395
 H         2.028488         2.299327         0.542738
