19
Iteration:  1878
 C        -0.130779        -0.136476        -0.089745
 C         1.294955         0.023779         0.048975
 C         2.058991        -0.627515         1.450805
 C         3.630863        -0.271670         1.049432
 C         3.364660         0.314811        -0.362987
 C         3.750888         1.459633        -1.284927
 O         2.427267         2.156557        -1.330435
 C         2.137522         1.320095        -0.073692
 O         2.274778        -0.619301        -0.950111
 H        -0.469585        -0.969286        -0.799210
 H        -0.617393        -0.212029         0.952444
 H        -0.554768         0.690882        -0.677786
 H         1.552210        -0.041275         2.280759
 H         1.928841        -1.749810         1.707681
 H         4.073315         0.478608         1.688615
 H         4.245970        -1.086838         1.189901
 H         4.439613         2.096249        -0.777752
 H         4.245300         1.211371        -2.231091
 H         2.183420         2.096967         0.785695
