19
Iteration:  3963
 C        -0.184366        -0.133060        -0.108488
 C         1.312362         0.208257         0.128810
 C         1.876333         0.179695         1.602816
 C         3.431907         0.366294         1.375042
 C         3.249101         0.382614        -0.204650
 C         3.956132         0.838686        -1.426358
 O         2.638514         1.327758        -1.854913
 C         2.082534         1.386435        -0.512428
 O         2.388043        -0.790011        -0.482768
 H        -0.347957        -1.243885        -0.232606
 H        -0.690849         0.330961         0.703873
 H        -0.522528         0.304800        -1.056760
 H         1.570673         0.981569         2.375481
 H         1.605370        -0.818765         2.079395
 H         3.862859         1.280520         1.733850
 H         4.039798        -0.426530         1.717667
 H         4.620636         1.667883        -1.377459
 H         4.381339         0.183373        -2.150504
 H         1.921523         2.461518        -0.159529
