19
Iteration:  1739
 C        -0.105052        -0.171753        -0.039964
 C         1.413957         0.061529         0.082116
 C         2.088756        -0.553930         1.257517
 C         3.551097        -0.350436         0.974954
 C         3.285143         0.410246        -0.304443
 C         3.740461         1.460313        -1.302163
 O         2.364753         2.018161        -1.314306
 C         2.126217         1.340786        -0.000694
 O         2.343643        -0.529795        -0.885766
 H        -0.452979        -1.236943        -0.096451
 H        -0.642962         0.337824         0.839795
 H        -0.393927         0.294466        -1.010275
 H         1.708163        -0.045486         2.180606
 H         1.845675        -1.658982         1.272392
 H         3.973178         0.149959         1.940633
 H         4.222354        -1.380107         0.916662
 H         4.518072         2.103696        -0.746786
 H         4.177319         1.214216        -2.327241
 H         2.048922         2.152662         0.713076
