19
Iteration:  3161
 C        -0.097146        -0.122966         0.030882
 C         1.351067         0.073804         0.109107
 C         1.937469        -0.234207         1.472199
 C         3.525419        -0.060973         1.146017
 C         3.269592         0.389946        -0.234420
 C         3.902064         1.182812        -1.335032
 O         2.471968         1.814016        -1.561945
 C         2.113758         1.364286        -0.304093
 O         2.352065        -0.713086        -0.807353
 H        -0.285732        -0.912263        -0.633217
 H        -0.812770        -0.378072         0.816706
 H        -0.647446         0.632896        -0.515467
 H         1.566668         0.541555         2.122943
 H         1.458008        -1.208362         1.859360
 H         3.910726         0.545874         1.936595
 H         4.068451        -0.937564         1.004351
 H         4.587807         2.060529        -0.937944
 H         4.369493         0.767992        -2.316865
 H         2.125073         2.250507         0.442330
