19
Iteration:  2643charge 0 multiplicity 1
 C        -0.093026        -0.183190        -0.225450
 C         1.411029         0.011115         0.122490
 C         2.053695        -0.446704         1.442262
 C         3.626864        -0.301620         1.040876
 C         3.306706         0.382304        -0.301915
 C         3.637615         1.392576        -1.458094
 O         2.449528         2.101723        -1.183312
 C         2.175528         1.297935        -0.013098
 O         2.259591        -0.604592        -0.941745
 H        -0.181831        -0.434779        -1.287681
 H        -0.492579        -0.940178         0.415482
 H        -0.889507         0.650251        -0.005304
 H         1.853381         0.254269         2.220578
 H         1.677634        -1.430668         1.685153
 H         3.951330         0.441059         1.726384
 H         4.230735        -1.221448         1.013141
 H         4.526613         2.109408        -1.060878
 H         3.948508         0.991959        -2.429523
 H         2.155575         1.900654         0.932284
