19
Iteration:  3362charge 0 multiplicity 1
 C        -0.089364        -0.283179        -0.215369
 C         1.301672         0.123779         0.174174
 C         1.908671        -0.039483         1.570680
 C         3.475904         0.016346         1.236218
 C         3.316009         0.401265        -0.159804
 C         3.738486         0.996228        -1.583534
 O         2.600729         1.797936        -1.608322
 C         2.171920         1.427331        -0.287257
 O         2.331215        -0.661741        -0.596066
 H        -0.382747        -1.305826         0.145545
 H        -0.879650         0.383141         0.175166
 H        -0.092321        -0.287458        -1.283520
 H         1.524077         0.752127         2.244174
 H         1.918751        -1.046464         1.985370
 H         4.121081         0.662679         1.832948
 H         3.937202        -1.007275         1.296441
 H         4.700567         1.614944        -1.571266
 H         3.771542         0.084034        -2.197873
 H         2.140969         2.362532         0.316199
