19
Iteration:   843
 C        -0.034392        -0.303095        -0.196957
 C         1.402976         0.146980         0.163701
 C         2.086597        -0.596012         1.348347
 C         3.629432        -0.450014         0.950015
 C         3.288786         0.449809        -0.238247
 C         3.726014         1.355230        -1.346815
 O         2.376352         2.101906        -1.241175
 C         2.157375         1.481766         0.034345
 O         2.207745        -0.441056        -0.917256
 H        -0.461859        -1.220349         0.325342
 H        -0.814058         0.499382        -0.048236
 H        -0.020907        -0.484311        -1.300979
 H         1.945335        -0.124090         2.359611
 H         1.796055        -1.651712         1.292450
 H         4.223795        -0.012361         1.781430
 H         4.033514        -1.458308         0.661782
 H         4.574011         2.050880        -1.141850
 H         3.811363         0.708087        -2.216383
 H         2.028212         2.221873         0.747415
