19
Iteration:  2470charge 0 multiplicity 1
 C        -0.131294        -0.179471        -0.101115
 C         1.364737         0.059646         0.109003
 C         2.092780        -0.645627         1.357149
 C         3.557729        -0.288477         1.062578
 C         3.307280         0.496012        -0.244212
 C         3.804526         1.351763        -1.382070
 O         2.430518         1.886199        -1.434076
 C         2.123646         1.439851         0.025501
 O         2.298464        -0.422591        -0.843085
 H        -0.634952         0.701658        -0.439636
 H        -0.329632        -0.818110        -0.897284
 H        -0.708367        -0.421782         0.840224
 H         1.570524         0.046661         2.183081
 H         1.704925        -1.658648         1.435387
 H         4.198110         0.180645         1.829728
 H         4.213472        -1.234982         0.779641
 H         4.583956         2.032626        -1.102845
 H         3.959150         0.806384        -2.314519
 H         1.895546         2.249645         0.691529
