19
Iteration:  3777
 C        -0.019662        -0.285286        -0.175346
 C         1.393718         0.319783         0.182781
 C         1.849932         0.173036         1.607888
 C         3.414220         0.171841         1.342074
 C         3.326966         0.418165        -0.168903
 C         3.811088         0.756066        -1.512140
 O         2.570295         1.502886        -1.824542
 C         2.199211         1.500967        -0.406699
 O         2.272038        -0.705051        -0.468825
 H        -0.825703         0.274470        -0.756836
 H         0.202510        -0.938103        -1.047481
 H        -0.684774        -0.724665         0.543800
 H         1.516511         0.942299         2.296245
 H         1.603237        -0.855028         2.026506
 H         3.917038         0.802925         2.036083
 H         3.739590        -0.795315         1.511698
 H         4.691308         1.519505        -1.510114
 H         4.084955        -0.021673        -2.236127
 H         2.123883         2.466116        -0.111456
