19
Iteration:  2475
 C        -0.105086        -0.185857        -0.120028
 C         1.351819         0.099410         0.111064
 C         2.081322        -0.621400         1.352431
 C         3.597323        -0.315507         1.105829
 C         3.266008         0.514455        -0.220923
 C         3.778692         1.267564        -1.357496
 O         2.391514         1.924225        -1.431679
 C         2.163041         1.429480         0.023318
 O         2.298302        -0.431190        -0.873984
 H        -0.593920         0.775533        -0.482117
 H        -0.269587        -0.974714        -0.950599
 H        -0.631840        -0.508135         0.754526
 H         1.896079        -0.026468         2.186250
 H         1.677961        -1.646495         1.381389
 H         4.109654         0.398145         1.779172
 H         4.107087        -1.193702         0.829262
 H         4.690064         1.963689        -1.226717
 H         3.991936         0.965338        -2.415018
 H         1.933565         2.206605         0.798909
