19
Iteration:   547charge 0 multiplicity 1
 C        -0.182974        -0.225253        -0.095642
 C         1.349462         0.020041         0.049865
 C         2.050356        -0.585368         1.375199
 C         3.604195        -0.376859         0.993133
 C         3.310760         0.382638        -0.299934
 C         3.742077         1.498793        -1.395519
 O         2.461514         2.245941        -1.221857
 C         2.147022         1.366630        -0.030916
 O         2.295377        -0.621799        -0.945257
 H        -0.454583        -1.083415         0.475492
 H        -0.681679         0.629253         0.322205
 H        -0.415406        -0.475319        -1.122746
 H         1.765546        -0.310982         2.381017
 H         1.775615        -1.695516         1.504448
 H         4.008045         0.140451         1.896139
 H         4.361171        -1.193990         0.868150
 H         4.552824         2.170877        -0.893910
 H         3.976969         1.157790        -2.441948
 H         2.295005         1.820755         1.018059
