19
Iteration:  4337
 C        -0.081818        -0.265077        -0.177609
 C         1.367866         0.206892         0.166505
 C         1.787114         0.184056         1.595090
 C         3.423917         0.289557         1.326576
 C         3.317551         0.428210        -0.180947
 C         3.805280         0.651364        -1.576058
 O         2.607883         1.556761        -1.832072
 C         2.187439         1.478090        -0.425676
 O         2.371710        -0.736175        -0.368973
 H        -0.193811        -1.297793         0.086719
 H        -0.845442         0.446582         0.361275
 H        -0.271080        -0.130124        -1.235927
 H         1.441566         1.043487         2.144651
 H         1.539425        -0.726930         1.980811
 H         3.935223         1.175800         1.823153
 H         3.807171        -0.759416         1.596030
 H         4.884754         1.176569        -1.557008
 H         3.852612        -0.229460        -2.250515
 H         2.042742         2.581611         0.027055
