19
Iteration:  2509
 C        -0.071034        -0.224119        -0.231739
 C         1.378758         0.026048         0.110586
 C         2.009923        -0.441379         1.411799
 C         3.572843        -0.234557         1.057547
 C         3.248184         0.328760        -0.298263
 C         3.728540         1.353315        -1.547135
 O         2.465920         2.110407        -1.232389
 C         2.189971         1.348247         0.043541
 O         2.259209        -0.595095        -0.848708
 H        -0.393383         0.657262        -0.826818
 H        -0.060613        -1.204173        -0.828284
 H        -0.667753        -0.362416         0.678518
 H         1.900119         0.047690         2.326133
 H         1.803081        -1.475614         1.808134
 H         4.102852         0.467344         1.788854
 H         4.149072        -1.119027         1.068963
 H         4.622323         1.948589        -1.118691
 H         3.593614         0.990020        -2.618251
 H         2.205995         2.035769         0.957022
