19
Iteration:  3971
 C        -0.172015        -0.133762        -0.052083
 C         1.237506         0.216648         0.107505
 C         1.904251         0.155936         1.621371
 C         3.384703         0.363372         1.397747
 C         3.274277         0.425002        -0.197315
 C         4.039360         0.793366        -1.457166
 O         2.578141         1.313352        -1.932665
 C         2.117643         1.397070        -0.493230
 O         2.420605        -0.733142        -0.461163
 H        -0.389989        -1.138071        -0.280275
 H        -0.856140         0.151964         0.767853
 H        -0.382332         0.407381        -0.952633
 H         1.385049         0.734748         2.283164
 H         1.551930        -0.924030         1.806666
 H         3.838100         1.282497         1.882981
 H         3.903507        -0.540298         1.696736
 H         4.660266         1.738541        -1.295720
 H         4.542520         0.033501        -2.220605
 H         1.893906         2.435706        -0.022493
