19
Iteration:  3743charge 0 multiplicity 1
 C        -0.172405        -0.157802        -0.178266
 C         1.338069         0.149881         0.149666
 C         1.910070         0.162653         1.598206
 C         3.460617         0.261255         1.368420
 C         3.328283         0.371484        -0.134082
 C         3.868350         0.790194        -1.524275
 O         2.573916         1.564112        -1.765272
 C         2.133373         1.400404        -0.405405
 O         2.370103        -0.763595        -0.587021
 H        -0.441859         0.384234        -1.105793
 H        -0.239041        -1.275370        -0.243825
 H        -0.899095         0.033462         0.609673
 H         1.622704         1.003533         2.190627
 H         1.635168        -0.796803         2.194501
 H         3.877578         1.114285         1.852192
 H         3.970556        -0.609308         1.644508
 H         4.665550         1.479144        -1.278874
 H         4.110596        -0.074846        -2.211754
 H         1.752567         2.281258        -0.018532
