19
Iteration:  3890charge 0 multiplicity 1
 C        -0.070154        -0.240357        -0.204439
 C         1.318138         0.188481         0.158891
 C         1.920112         0.186394         1.616318
 C         3.440674         0.226812         1.381336
 C         3.240186         0.479986        -0.125424
 C         3.837700         0.696094        -1.456209
 O         2.592830         1.438972        -1.811389
 C         2.156196         1.533825        -0.497064
 O         2.326754        -0.701188        -0.505266
 H        -0.495334        -0.660229         0.766674
 H        -0.475919         0.679540        -0.651333
 H        -0.005673        -1.066578        -0.990467
 H         1.397711         1.032437         2.186178
 H         1.678389        -0.661979         2.126938
 H         3.982268         1.016099         1.951853
 H         3.993400        -0.744585         1.684703
 H         4.784093         1.420507        -1.631012
 H         3.900666        -0.142030        -2.172451
 H         1.963051         2.551995        -0.193833
