19
Iteration:  1000
 C        -0.182381        -0.164987        -0.160607
 C         1.362990         0.015795         0.076801
 C         2.099282        -0.480895         1.350150
 C         3.624254        -0.351227         1.016045
 C         3.285612         0.318108        -0.319807
 C         3.743706         1.429091        -1.311443
 O         2.392456         2.119475        -1.156187
 C         2.093192         1.243668         0.029731
 O         2.370627        -0.514449        -1.028402
 H        -0.496603        -1.196077         0.086217
 H        -0.673379         0.490616         0.613911
 H        -0.437566         0.121934        -1.197118
 H         1.872422         0.227443         2.195327
 H         1.872435        -1.525621         1.769062
 H         4.189422         0.291502         1.705926
 H         4.093618        -1.337923         0.705413
 H         4.597295         2.121167        -1.021638
 H         3.775233         1.178972        -2.406402
 H         2.223762         1.938238         0.824509
