19
Iteration:  1699charge 0 multiplicity 1
 C        -0.048111        -0.258740        -0.210206
 C         1.329331         0.003202         0.177256
 C         2.119876        -0.548032         1.374914
 C         3.564681        -0.408819         0.985566
 C         3.309036         0.450497        -0.262479
 C         3.727274         1.291877        -1.417866
 O         2.403243         2.082145        -1.303542
 C         2.102957         1.477724         0.069000
 O         2.285444        -0.395947        -0.883998
 H        -0.088599        -1.250833        -0.656885
 H        -0.741514        -0.286707         0.624295
 H        -0.186037         0.567159        -0.958774
 H         1.975412        -0.064787         2.323868
 H         1.833932        -1.553346         1.629910
 H         4.103663         0.072648         1.736910
 H         4.092781        -1.297590         0.830501
 H         4.492149         1.977029        -1.238106
 H         3.742947         0.836873        -2.398255
 H         2.038731         2.043292         1.007769
