19
Iteration:  4271
 C        -0.068557        -0.038699        -0.053195
 C         1.365023         0.121859         0.128845
 C         1.884718         0.241121         1.563638
 C         3.368697         0.302951         1.326936
 C         3.272261         0.352074        -0.186829
 C         3.966039         0.916051        -1.388846
 O         2.586301         1.444099        -1.908274
 C         2.083642         1.260425        -0.532728
 O         2.364625        -0.886971        -0.432428
 H        -0.415116        -0.951000        -0.472724
 H        -0.713585        -0.013167         0.849798
 H        -0.479168         0.653735        -0.786903
 H         1.587663         1.144176         2.083251
 H         1.583112        -0.580842         2.084001
 H         3.824420         1.152900         1.798353
 H         3.708975        -0.725075         1.657211
 H         4.534153         1.958551        -1.272140
 H         4.517975         0.332909        -2.148303
 H         1.731524         2.313137        -0.147860
