19
Iteration:  3813charge 0 multiplicity 1
 C        -0.197479        -0.122667        -0.129822
 C         1.332304         0.084466         0.111975
 C         1.899807         0.202356         1.619498
 C         3.424095         0.261748         1.313435
 C         3.351356         0.418136        -0.172879
 C         3.921617         0.877795        -1.429115
 O         2.597917         1.443025        -1.810102
 C         2.121797         1.368756        -0.431942
 O         2.338803        -0.799753        -0.542227
 H        -0.575034         0.822579         0.301815
 H        -0.209178        -0.194104        -1.201190
 H        -0.508546        -1.131455         0.218824
 H         1.395732         1.151288         1.941735
 H         1.571430        -0.532517         2.222428
 H         3.965368         1.041847         1.903487
 H         3.867665        -0.756432         1.589611
 H         4.649248         1.825178        -1.342689
 H         4.184534         0.097270        -2.119957
 H         1.982593         2.371119         0.037210
