19
Iteration:   333
 C        -0.079855        -0.161074        -0.270612
 C         1.335101         0.062347         0.115956
 C         2.075495        -0.525247         1.411433
 C         3.624326        -0.300100         0.966631
 C         3.276418         0.415108        -0.338534
 C         3.680697         1.424306        -1.300813
 O         2.419199         2.168146        -1.163795
 C         2.169417         1.291817         0.037546
 O         2.304881        -0.653801        -0.921940
 H        -0.444653        -1.170764         0.131124
 H        -0.861172         0.505041         0.180023
 H        -0.314803        -0.151463        -1.346225
 H         1.679667        -0.240466         2.380985
 H         1.991580        -1.652169         1.304050
 H         4.344083         0.283915         1.514328
 H         3.870332        -1.372787         0.655584
 H         4.488425         2.161529        -0.970319
 H         3.914897         1.147616        -2.326880
 H         2.312681         1.884540         0.889586
