19
Iteration:  2302
 C        -0.141415        -0.082797        -0.128732
 C         1.330501         0.010341         0.092516
 C         2.104509        -0.547416         1.340304
 C         3.653079        -0.328014         1.028883
 C         3.252114         0.349358        -0.306529
 C         3.782629         1.476919        -1.252534
 O         2.414136         2.076913        -1.340355
 C         2.089537         1.308300        -0.075376
 O         2.324748        -0.632127        -0.909060
 H        -0.679052        -0.846276        -0.732067
 H        -0.590768        -0.408971         0.838228
 H        -0.571423         0.843967        -0.375402
 H         1.673128         0.103084         2.256530
 H         1.819207        -1.658889         1.544701
 H         4.306996         0.446829         1.652127
 H         4.287608        -1.230513         1.090566
 H         4.379231         2.072913        -0.633462
 H         4.182473         1.315119        -2.254115
 H         2.065469         2.105717         0.706646
