19
Iteration:  4129
 C        -0.166564        -0.067751        -0.073927
 C         1.300487         0.098548         0.158284
 C         1.899085         0.086160         1.579020
 C         3.394401         0.350238         1.255706
 C         3.302156         0.373946        -0.155939
 C         3.974950         0.917747        -1.453519
 O         2.603191         1.373093        -1.878460
 C         2.143677         1.289455        -0.536190
 O         2.341871        -0.689804        -0.414178
 H        -0.665616        -0.527348         0.779172
 H        -0.641128         0.891168        -0.284883
 H        -0.377350        -0.774174        -0.896412
 H         1.466475         0.812579         2.319699
 H         1.634210        -0.868466         1.882680
 H         3.698370         1.250035         1.701027
 H         4.038786        -0.488301         1.646338
 H         4.661831         1.728387        -1.177986
 H         4.454075         0.267900        -2.131336
 H         1.984954         2.271201         0.049003
