19
Iteration:  4518charge 0 multiplicity 1
 C        -0.131572        -0.127218        -0.147778
 C         1.376427         0.196648         0.116050
 C         1.855740         0.189263         1.622407
 C         3.467753         0.253188         1.421551
 C         3.329733         0.436455        -0.128818
 C         3.887574         0.861473        -1.541806
 O         2.541243         1.350946        -1.856425
 C         2.153933         1.393128        -0.448779
 O         2.358214        -0.753486        -0.510745
 H        -0.334594        -1.162008         0.197835
 H        -0.819893         0.520863         0.302200
 H        -0.465736        -0.056084        -1.177656
 H         1.413288         1.030101         2.157824
 H         1.552507        -0.705358         2.231008
 H         3.841773         1.058004         2.017113
 H         4.053730        -0.615227         1.733771
 H         4.724196         1.645393        -1.564640
 H         4.071739        -0.003505        -2.188952
 H         1.852410         2.371042        -0.060817
