19
Iteration:  4893charge 0 multiplicity 1
 C        -0.017441        -0.208189        -0.154952
 C         1.391402         0.210713         0.182378
 C         1.779539         0.241496         1.642944
 C         3.360304         0.188572         1.364486
 C         3.311354         0.399835        -0.190751
 C         3.801787         0.863188        -1.617717
 O         2.589103         1.468644        -1.809984
 C         2.200654         1.387025        -0.472526
 O         2.336624        -0.757698        -0.414813
 H        -0.076444        -1.319570        -0.016817
 H        -0.846741         0.320951         0.425228
 H        -0.338271        -0.006320        -1.247056
 H         1.826513         1.155403         2.152380
 H         1.527178        -0.582240         2.266634
 H         3.960810         0.960629         1.934416
 H         3.876766        -0.804667         1.519211
 H         4.662936         1.530045        -1.706422
 H         4.054457        -0.002778        -2.264891
 H         2.159703         2.463839        -0.019025
