19
Iteration:  4895charge 0 multiplicity 1
 C        -0.031280        -0.214244        -0.160698
 C         1.394827         0.224056         0.176100
 C         1.781746         0.271280         1.630392
 C         3.369274         0.178362         1.362216
 C         3.311537         0.368496        -0.203134
 C         3.825474         0.870613        -1.595874
 O         2.577236         1.477305        -1.792280
 C         2.195552         1.373462        -0.471593
 O         2.340857        -0.768040        -0.417309
 H        -0.134978        -1.349958         0.053897
 H        -0.770722         0.349314         0.422509
 H        -0.324645        -0.034033        -1.235049
 H         1.793941         1.238841         2.167999
 H         1.507933        -0.645247         2.252115
 H         3.974907         1.013477         1.858547
 H         3.866073        -0.769974         1.518528
 H         4.593896         1.551741        -1.754026
 H         4.047299         0.041870        -2.272837
 H         2.141636         2.472442        -0.013333
