19
Iteration:  1550charge 0 multiplicity 1
 C        -0.085524        -0.196863        -0.219252
 C         1.344373        -0.061846        -0.019446
 C         2.081945        -0.434880         1.483441
 C         3.551320        -0.314542         1.017495
 C         3.280277         0.422353        -0.386989
 C         3.716971         1.430405        -1.456431
 O         2.436901         2.153273        -1.069561
 C         2.140013         1.335792         0.014029
 O         2.325424        -0.627900        -0.909036
 H        -0.516366        -1.225479        -0.330020
 H        -0.502710         0.229351         0.697261
 H        -0.539265         0.385662        -1.048275
 H         1.902804         0.057587         2.408392
 H         1.861233        -1.455030         1.620210
 H         4.448357         0.238435         1.513431
 H         3.888573        -1.366296         0.881457
 H         4.716047         1.863820        -1.318841
 H         3.739699         0.944089        -2.399636
 H         1.997895         1.866394         0.936903
