19
Iteration:  4943charge 0 multiplicity 1
 C        -0.149074        -0.125756        -0.045166
 C         1.311071         0.120371         0.160077
 C         1.885840         0.140455         1.679619
 C         3.438624         0.275311         1.279103
 C         3.233344         0.368661        -0.273679
 C         4.026208         0.935440        -1.465035
 O         2.636935         1.477472        -1.895148
 C         2.056737         1.304272        -0.444568
 O         2.307676        -0.749795        -0.481091
 H        -0.619675        -0.722509         0.687840
 H        -0.733221         0.770702        -0.263291
 H        -0.205602        -0.703515        -0.946254
 H         1.575179         0.992039         2.377881
 H         1.775575        -0.898796         2.056669
 H         3.826027         1.228765         1.547060
 H         4.021760        -0.512000         1.788151
 H         4.888006         1.556450        -1.205913
 H         4.425226         0.233534        -2.198322
 H         1.849975         2.266323        -0.022660
