19
Iteration:  2807
 C        -0.062076        -0.248437        -0.250129
 C         1.385161         0.140423         0.184788
 C         2.007853        -0.437903         1.480320
 C         3.496560        -0.365485         1.076319
 C         3.361937         0.427613        -0.287208
 C         3.695739         1.293836        -1.495691
 O         2.375861         1.987409        -1.337579
 C         2.213895         1.424940        -0.007558
 O         2.334319        -0.506818        -0.821621
 H        -0.663233        -0.087551         0.715831
 H        -0.081116         0.441544        -1.089781
 H         0.020878        -1.244215        -0.839738
 H         1.845403         0.131506         2.405972
 H         1.655523        -1.456773         1.588893
 H         4.019614         0.088249         1.916593
 H         3.962180        -1.376240         1.000968
 H         4.468853         1.969361        -1.345963
 H         3.769899         0.862336        -2.471439
 H         1.995492         2.270924         0.752888
