19
Iteration:  4957charge 0 multiplicity 1
 C        -0.145247        -0.150619        -0.039038
 C         1.315981         0.188304         0.159462
 C         1.897167         0.035383         1.585008
 C         3.396109         0.328447         1.356496
 C         3.293883         0.405926        -0.157807
 C         3.890259         0.849061        -1.488316
 O         2.631273         1.458764        -1.956078
 C         2.158134         1.385127        -0.477520
 O         2.346521        -0.723426        -0.456509
 H        -0.488101        -0.544918         0.888273
 H        -0.708816         0.794550        -0.206644
 H        -0.389110        -0.860057        -0.867468
 H         1.344253         0.593038         2.314944
 H         1.674351        -0.960961         1.829022
 H         3.883365         1.056057         1.995070
 H         3.970162        -0.632899         1.440090
 H         4.446850         1.858267        -1.267278
 H         4.375910         0.164980        -2.234751
 H         2.125529         2.348729        -0.064339
