19
Iteration:  4719
 C        -0.108418        -0.107441        -0.163752
 C         1.345157         0.044846         0.129107
 C         1.922651         0.219649         1.626997
 C         3.439344         0.308169         1.384597
 C         3.292518         0.334727        -0.191181
 C         3.847736         0.780109        -1.497489
 O         2.566044         1.574100        -1.807470
 C         2.148894         1.293194        -0.440564
 O         2.370053        -0.771295        -0.544117
 H        -0.666320        -0.443543         0.668433
 H        -0.516713         0.906887        -0.331657
 H        -0.278187        -0.789312        -1.026245
 H         1.633802         1.161609         2.278969
 H         1.406058        -0.582918         2.224423
 H         3.816153         1.267871         1.740045
 H         4.006129        -0.445657         1.974354
 H         4.645307         1.546821        -1.497708
 H         4.013866        -0.137117        -2.114828
 H         1.863842         2.267605         0.022101
