19
Iteration:  3137charge 0 multiplicity 1
 C        -0.150465        -0.119187        -0.118207
 C         1.363741         0.089340         0.051053
 C         2.030948        -0.374742         1.550004
 C         3.537393        -0.102833         1.245478
 C         3.294951         0.422380        -0.210006
 C         3.777996         1.190572        -1.473271
 O         2.554865         1.755060        -1.626979
 C         2.098287         1.407572        -0.142196
 O         2.313965        -0.581208        -0.747636
 H        -0.540119        -1.091760        -0.108759
 H        -0.684385         0.296693         0.720106
 H        -0.629463         0.319097        -0.934298
 H         1.552160         0.081635         2.476545
 H         1.617542        -1.335754         1.477899
 H         3.971757         0.676089         1.860947
 H         4.197571        -0.964684         1.242896
 H         4.460484         2.078461        -1.140475
 H         4.277773         0.692736        -2.287365
 H         1.994221         2.401561         0.338870
