19
Iteration:  2126
 C        -0.087761        -0.232592        -0.146249
 C         1.382038         0.091507         0.151087
 C         2.094433        -0.533262         1.382508
 C         3.538646        -0.326838         1.039587
 C         3.281208         0.402621        -0.240059
 C         3.728581         1.280545        -1.424741
 O         2.429864         2.063505        -1.275226
 C         2.169030         1.398724         0.031099
 O         2.282310        -0.467428        -0.970834
 H        -0.129615        -1.281247        -0.486364
 H        -0.903367        -0.196265         0.595742
 H        -0.492677         0.425689        -0.854322
 H         1.806044         0.128387         2.296814
 H         1.849592        -1.628141         1.451109
 H         3.949111         0.585313         1.676825
 H         4.238685        -1.182238         0.781661
 H         4.597785         1.922928        -1.035771
 H         3.906527         0.769944        -2.412576
 H         2.055106         2.060072         0.898942
