19
Iteration:  1928
 C        -0.103826        -0.238730        -0.129302
 C         1.319384         0.100744         0.083278
 C         2.103536        -0.605999         1.375333
 C         3.580637        -0.372686         1.045650
 C         3.292052         0.460141        -0.165357
 C         3.760566         1.288565        -1.346730
 O         2.428628         2.032956        -1.330753
 C         2.082534         1.475569         0.000933
 O         2.312761        -0.418169        -0.980032
 H        -0.253410        -1.312899        -0.273547
 H        -0.656648        -0.014542         0.769863
 H        -0.528022         0.182865        -1.049435
 H         1.813074        -0.170094         2.321320
 H         1.671994        -1.562276         1.378521
 H         4.119175         0.088399         1.928792
 H         4.298755        -1.229901         0.764548
 H         4.628969         2.033466        -1.214693
 H         3.905285         0.840440        -2.333158
 H         2.263783         2.131447         0.806295
