19
Iteration:  3462
 C        -0.129610        -0.252941        -0.109741
 C         1.379884         0.149644         0.142516
 C         1.896016        -0.054388         1.603098
 C         3.427559         0.043583         1.236547
 C         3.329834         0.399212        -0.166362
 C         3.880254         0.964878        -1.516366
 O         2.540009         1.648288        -1.700634
 C         2.141118         1.491871        -0.307098
 O         2.333074        -0.628348        -0.648197
 H        -0.172900        -0.620509        -1.166232
 H        -0.332033        -1.157918         0.484041
 H        -0.843404         0.552449         0.035140
 H         1.615194         0.867120         2.274584
 H         1.520292        -0.980952         1.997115
 H         3.950546         0.804836         1.853822
 H         4.056281        -0.865010         1.451806
 H         4.764171         1.679409        -1.511674
 H         3.947198         0.139887        -2.136349
 H         1.975894         2.451969         0.196261
