19
Iteration:  1740charge 0 multiplicity 1
 C        -0.106955        -0.168725        -0.042038
 C         1.410347         0.041259         0.079264
 C         2.092960        -0.556811         1.258555
 C         3.548727        -0.340575         0.979264
 C         3.276030         0.405870        -0.312999
 C         3.736603         1.463558        -1.294931
 O         2.367702         2.025070        -1.316295
 C         2.139747         1.343982        -0.004283
 O         2.340402        -0.531397        -0.881346
 H        -0.456887        -1.241297        -0.055158
 H        -0.628760         0.340451         0.846536
 H        -0.382540         0.306083        -1.034421
 H         1.720536        -0.070294         2.151445
 H         1.822831        -1.637150         1.277004
 H         4.007244         0.161363         1.916439
 H         4.218060        -1.374062         0.925422
 H         4.492531         2.082705        -0.724069
 H         4.184834         1.224715        -2.312702
 H         2.067755         2.152240         0.706855
