19
Iteration:  4113
 C        -0.135589        -0.126802        -0.060087
 C         1.371607         0.265718         0.088989
 C         1.870724         0.039526         1.586086
 C         3.437881         0.298971         1.382224
 C         3.222467         0.475526        -0.177893
 C         3.925074         0.853354        -1.423520
 O         2.613201         1.327031        -1.955310
 C         2.097577         1.466511        -0.453447
 O         2.357363        -0.787294        -0.460244
 H        -0.468788        -0.587538         0.883355
 H        -0.664440         0.847914        -0.167694
 H        -0.248864        -0.729991        -0.956480
 H         1.422410         0.645883         2.348242
 H         1.716546        -1.071381         1.907797
 H         3.715578         1.321906         1.833874
 H         4.008313        -0.554968         1.696760
 H         4.626083         1.754297        -1.352058
 H         4.427781         0.043777        -2.089200
 H         2.011690         2.497035        -0.279048
