19
Iteration:  4835
 C        -0.105291        -0.089087        -0.143454
 C         1.335963         0.137348         0.184189
 C         1.866067         0.120346         1.630397
 C         3.435443         0.360174         1.346528
 C         3.283696         0.321090        -0.192664
 C         3.956790         0.875832        -1.517523
 O         2.565362         1.427080        -1.927098
 C         2.176079         1.369034        -0.428751
 O         2.269598        -0.768870        -0.461933
 H        -0.415132        -1.093096        -0.383205
 H        -0.750477         0.177042         0.738137
 H        -0.370458         0.548470        -0.984737
 H         1.513213         0.757412         2.385037
 H         1.714508        -0.827664         2.056359
 H         3.812690         1.326605         1.663915
 H         3.999133        -0.468421         1.854526
 H         4.691059         1.684182        -1.211839
 H         4.375440         0.031864        -2.049895
 H         2.234089         2.271837         0.094495
