19
Iteration:  2834
 C        -0.151188        -0.160952        -0.203744
 C         1.363027         0.070930         0.079486
 C         2.067941        -0.425037         1.466073
 C         3.615515        -0.263955         1.045759
 C         3.285782         0.373284        -0.243646
 C         3.686117         1.278724        -1.343189
 O         2.458709         1.964466        -1.366346
 C         2.125636         1.370972        -0.010417
 O         2.327542        -0.572246        -0.894461
 H        -0.571846        -0.484970         0.698082
 H        -0.444856         0.846193        -0.532772
 H        -0.160389        -0.680136        -1.097481
 H         1.758844         0.213872         2.317166
 H         1.807453        -1.467823         1.756915
 H         4.137896         0.581991         1.569536
 H         4.210543        -1.146061         1.143314
 H         4.471518         2.086090        -1.039488
 H         3.964809         0.810078        -2.328846
 H         1.877960         2.135646         0.694380
