19
Iteration:  3333
 C        -0.020377        -0.308261        -0.107313
 C         1.336876         0.214757         0.119970
 C         1.952076        -0.068684         1.579401
 C         3.431304        -0.102141         1.264183
 C         3.313937         0.401887        -0.188701
 C         3.786211         0.995942        -1.491700
 O         2.535679         1.742184        -1.635846
 C         2.146660         1.427729        -0.326983
 O         2.286203        -0.531090        -0.691057
 H        -0.445204        -0.889692         0.732500
 H        -0.823402         0.385441        -0.476974
 H         0.086825        -1.017520        -0.952411
 H         1.647620         0.792490         2.240494
 H         1.643825        -0.983694         1.971263
 H         3.963324         0.684897         1.858202
 H         4.013278        -1.057577         1.256247
 H         4.682584         1.552030        -1.210901
 H         4.048873         0.238051        -2.165757
 H         2.218484         2.285010         0.279796
