19
Iteration:  3726charge 0 multiplicity 1
 C        -0.090491        -0.094523        -0.125921
 C         1.363621         0.083091         0.063604
 C         1.893563         0.126264         1.571756
 C         3.455202         0.259426         1.275454
 C         3.230099         0.357632        -0.191306
 C         3.880151         0.964468        -1.427107
 O         2.611816         1.531071        -1.796699
 C         2.075511         1.282601        -0.399722
 O         2.350076        -0.807910        -0.479678
 H        -0.424062         0.146710        -1.157593
 H        -0.576794        -1.038240         0.108535
 H        -0.658479         0.687585         0.435229
 H         1.398722         0.975186         2.136075
 H         1.672075        -0.775413         2.043428
 H         3.952511         1.182650         1.706947
 H         4.069085        -0.614044         1.686181
 H         4.708127         1.749663        -1.346572
 H         4.105438         0.178208        -2.113694
 H         2.223858         2.264550         0.210211
