19
Iteration:  2570charge 0 multiplicity 1
 C        -0.119719        -0.244987        -0.063235
 C         1.302996         0.052477         0.135758
 C         2.005906        -0.595734         1.391687
 C         3.576746        -0.326186         1.041041
 C         3.331779         0.421579        -0.253728
 C         3.784323         1.412004        -1.305998
 O         2.403030         1.983007        -1.431161
 C         2.202207         1.433585        -0.008708
 O         2.300275        -0.432152        -0.949860
 H        -0.248517        -0.423907        -1.157590
 H        -0.457476        -1.122127         0.509279
 H        -0.839288         0.486497         0.187103
 H         1.845212        -0.055126         2.420832
 H         1.947124        -1.676565         1.410498
 H         4.062237         0.245349         1.835253
 H         4.039401        -1.347116         0.727293
 H         4.559025         2.067943        -1.057087
 H         4.096185         1.054848        -2.255729
 H         2.275454         2.234109         0.723517
