19
Iteration:  1959
 C         0.005511        -0.259133        -0.277888
 C         1.340439         0.072639         0.117369
 C         2.021919        -0.472625         1.466599
 C         3.658257        -0.399200         0.947938
 C         3.334622         0.381773        -0.303089
 C         3.713956         1.387849        -1.375163
 O         2.404448         2.102828        -1.239384
 C         2.127649         1.381953         0.027362
 O         2.214534        -0.542291        -0.855610
 H        -0.362613        -1.145913         0.095919
 H        -0.729359         0.402446         0.171926
 H        -0.143101        -0.061750        -1.344195
 H         1.794566         0.249153         2.355477
 H         1.604975        -1.498058         1.657279
 H         4.234136         0.196778         1.707436
 H         4.144086        -1.439195         0.661972
 H         4.465815         2.095770        -0.940098
 H         3.777614         1.182582        -2.446657
 H         2.424254         2.037191         0.860367
