19
Iteration:  1587charge 0 multiplicity 1
 C        -0.060140        -0.192792        -0.162802
 C         1.401095         0.036144         0.138139
 C         2.101072        -0.646495         1.385860
 C         3.582277        -0.307703         0.988393
 C         3.266504         0.398898        -0.286520
 C         3.844330         1.410701        -1.314217
 O         2.344514         1.978982        -1.339036
 C         2.134019         1.415118         0.063234
 O         2.209511        -0.419338        -0.926592
 H        -0.513929        -1.180670         0.127766
 H        -0.614918         0.662201         0.361589
 H        -0.143199        -0.015589        -1.252905
 H         1.875910        -0.360415         2.416870
 H         1.991810        -1.764670         1.248855
 H         4.099246         0.218282         1.781374
 H         4.029235        -1.333522         0.792507
 H         4.411270         2.243133        -0.985179
 H         4.061566         1.140315        -2.370739
 H         2.248413         2.178467         0.877847
