19
Iteration:  1910charge 0 multiplicity 1
 C        -0.073553        -0.205548        -0.038660
 C         1.353747         0.077638         0.017950
 C         1.962399        -0.593092         1.274525
 C         3.615442        -0.275485         1.024266
 C         3.312163         0.445649        -0.295556
 C         3.774602         1.369774        -1.324560
 O         2.476849         1.983238        -1.279801
 C         2.126020         1.374621         0.019052
 O         2.302601        -0.471131        -0.934978
 H        -0.478384        -1.274747        -0.317477
 H        -0.630140        -0.201202         0.960980
 H        -0.607270         0.564416        -0.617573
 H         1.525822        -0.167434         2.190256
 H         1.982053        -1.708549         1.313561
 H         4.083379         0.437352         1.707066
 H         4.101071        -1.176443         1.065453
 H         4.494739         2.079079        -0.964292
 H         3.995497         0.814454        -2.245255
 H         1.763813         2.225630         0.707618
