19
Iteration:  1536charge 0 multiplicity 1
 C        -0.092830        -0.265963        -0.167657
 C         1.421684        -0.022396         0.109336
 C         2.025086        -0.470718         1.403164
 C         3.568749        -0.334310         1.024824
 C         3.278606         0.344705        -0.325958
 C         3.687807         1.377295        -1.486833
 O         2.468725         2.273258        -1.124997
 C         2.186496         1.343537        -0.014632
 O         2.292274        -0.614388        -0.929597
 H        -0.239157        -1.240683        -0.506699
 H        -0.734584        -0.125580         0.673839
 H        -0.331186         0.446194        -0.945019
 H         1.576781         0.274972         2.114047
 H         1.737378        -1.478210         1.746971
 H         4.019417         0.164704         1.814735
 H         4.039541        -1.242212         0.838106
 H         4.504046         2.087324        -1.235712
 H         3.608792         1.109782        -2.549251
 H         2.285493         1.904947         0.912614
