19
Iteration:  4623charge 0 multiplicity 1
 C        -0.078537        -0.295864        -0.139530
 C         1.302796         0.259847         0.048188
 C         1.858578         0.324508         1.596022
 C         3.464942         0.211902         1.404145
 C         3.317454         0.319442        -0.151436
 C         3.746412         0.724647        -1.545298
 O         2.653809         1.527407        -1.856897
 C         2.148854         1.507674        -0.452620
 O         2.359741        -0.771942        -0.406606
 H        -0.230059        -1.402291        -0.359338
 H        -0.473613        -0.138851         0.875525
 H        -0.679279         0.352840        -0.870785
 H         1.435182         1.178045         2.144998
 H         1.615077        -0.701468         1.996170
 H         3.970228         1.140520         1.827886
 H         3.842591        -0.779553         1.653030
 H         4.684765         1.423589        -1.513140
 H         3.967501        -0.149180        -2.235666
 H         2.080012         2.448220         0.072533
