19
Iteration:     9charge 0 multiplicity 1
 C        -0.072300        -0.197022        -0.181866
 C         1.401790         0.008636        -0.032020
 C         2.104467        -0.726135         1.253336
 C         3.619085        -0.459315         0.900382
 C         3.249561         0.411960        -0.313277
 C         3.706164         1.521213        -1.312356
 O         2.372085         2.220248        -0.974129
 C         2.170485         1.287031         0.178354
 O         2.223495        -0.417690        -1.054005
 H        -0.450390         0.064695         0.884657
 H        -0.392107         0.546004        -0.909832
 H        -0.136398        -1.239260        -0.462954
 H         2.036042        -0.110309         2.095789
 H         1.901051        -1.842146         1.557640
 H         4.082611         0.003031         1.708203
 H         4.258034        -1.332538         0.527812
 H         4.584648         2.050366        -1.017292
 H         3.889935         1.221005        -2.426134
 H         2.083688         1.758408         1.077842
