19
Iteration:  3758
 C        -0.082753        -0.271128        -0.202169
 C         1.325999         0.194837         0.097602
 C         1.876328         0.142992         1.665668
 C         3.444574         0.184278         1.373429
 C         3.271004         0.386368        -0.199894
 C         3.897766         0.766736        -1.525578
 O         2.564268         1.513244        -1.792169
 C         2.168026         1.420266        -0.383126
 O         2.313168        -0.595159        -0.481131
 H        -0.520055         0.442576        -0.947267
 H        -0.025881        -1.201981        -0.729331
 H        -0.593623        -0.242193         0.787718
 H         1.436931         1.014708         2.198678
 H         1.529015        -0.701460         2.091990
 H         3.928597         1.120443         1.749916
 H         3.975628        -0.754822         1.715239
 H         4.770258         1.451867        -1.854115
 H         3.931403        -0.022438        -2.224057
 H         2.267178         2.398402         0.166027
