19
Iteration:  2117
 C        -0.074710        -0.208095        -0.166338
 C         1.376407         0.026548         0.113985
 C         2.058163        -0.479113         1.443842
 C         3.552711        -0.292763         1.048058
 C         3.251591         0.358007        -0.367425
 C         3.740932         1.298359        -1.412880
 O         2.447426         2.100011        -1.229353
 C         2.184160         1.357934         0.025471
 O         2.265224        -0.487422        -0.950394
 H         0.037518        -1.231336        -0.613973
 H        -0.579588        -0.425605         0.769615
 H        -0.469843         0.446819        -0.906882
 H         1.812108         0.107260         2.326327
 H         1.726722        -1.518392         1.669128
 H         4.196183         0.273512         1.842006
 H         4.049976        -1.276718         1.014495
 H         4.468668         2.137563        -1.219527
 H         3.827317         0.964741        -2.474432
 H         2.002169         2.100747         0.745812
