19
Iteration:   730
 C        -0.055817        -0.239422        -0.120998
 C         1.386056         0.039789         0.106468
 C         2.062958        -0.556484         1.312873
 C         3.571128        -0.440400         0.937437
 C         3.249780         0.471968        -0.250222
 C         3.739137         1.358283        -1.363005
 O         2.380312         1.969515        -1.252718
 C         2.122589         1.455564         0.087797
 O         2.358591        -0.333385        -0.937696
 H        -0.009485        -1.267681        -0.604682
 H        -0.716860        -0.269006         0.831903
 H        -0.552801         0.470721        -0.857615
 H         1.687718         0.067162         2.119675
 H         1.651534        -1.575893         1.533194
 H         4.180433         0.051468         1.712411
 H         4.033965        -1.417633         0.806562
 H         4.631148         1.994707        -1.165399
 H         3.893772         0.630440        -2.209208
 H         2.015033         2.181953         0.849557
