19
Iteration:  1994charge 0 multiplicity 1
 C        -0.122511        -0.138184        -0.166710
 C         1.399290        -0.035309         0.054079
 C         2.009397        -0.509365         1.459317
 C         3.651138        -0.286013         0.984615
 C         3.294542         0.374601        -0.347065
 C         3.705451         1.401758        -1.373945
 O         2.437389         2.059489        -1.175395
 C         2.050601         1.294953        -0.016521
 O         2.330603        -0.532783        -0.964054
 H        -0.681605        -0.998174         0.160788
 H        -0.325408         0.786685         0.334623
 H        -0.295762        -0.049629        -1.226437
 H         1.765572         0.133008         2.321974
 H         1.880750        -1.502082         1.820117
 H         4.186764         0.392736         1.774992
 H         4.277807        -1.264134         1.024341
 H         4.625102         2.034170        -1.090879
 H         3.969761         1.012616        -2.379244
 H         1.997440         1.901370         0.856295
