19
Iteration:  1260
 C         0.023739        -0.264362        -0.271929
 C         1.404431         0.052871         0.177175
 C         2.049452        -0.625181         1.396949
 C         3.524375        -0.420678         0.975829
 C         3.260452         0.478105        -0.285210
 C         3.685419         1.418112        -1.480103
 O         2.450759         2.136321        -1.217709
 C         2.142438         1.384146         0.082030
 O         2.286172        -0.454990        -0.834058
 H        -0.402228        -1.249932        -0.263895
 H        -0.573016         0.269198         0.489559
 H        -0.251765         0.261019        -1.163632
 H         1.532254        -0.258797         2.292003
 H         1.873823        -1.720985         1.322671
 H         4.220694         0.155728         1.572312
 H         3.906146        -1.477713         0.787525
 H         4.496085         2.135257        -1.415362
 H         3.704503         0.731022        -2.403454
 H         2.166768         2.093830         0.975481
