19
Iteration:  2330
 C        -0.079412        -0.083439        -0.128338
 C         1.365885         0.028139         0.135466
 C         2.068632        -0.518714         1.409514
 C         3.598714        -0.282223         0.984326
 C         3.282167         0.390450        -0.279422
 C         3.789099         1.452377        -1.310454
 O         2.376943         1.961073        -1.299042
 C         2.131190         1.266317        -0.019940
 O         2.282616        -0.552533        -0.965289
 H        -0.319927        -0.723515        -0.980434
 H        -0.624479        -0.737236         0.562718
 H        -0.479004         0.970334        -0.341366
 H         1.738642         0.069872         2.192694
 H         1.841585        -1.531991         1.529831
 H         4.190088         0.356471         1.561235
 H         4.190461        -1.247403         0.943349
 H         4.448581         2.135184        -0.658776
 H         4.137828         1.176834        -2.319986
 H         1.991576         2.060744         0.737590
