19
Iteration:   964
 C        -0.006575        -0.189249        -0.196190
 C         1.361229         0.073194         0.218672
 C         2.089432        -0.607629         1.377374
 C         3.581489        -0.392516         0.972707
 C         3.222465         0.392244        -0.283031
 C         3.696075         1.368624        -1.368180
 O         2.385008         2.134214        -1.278892
 C         2.140427         1.409051         0.013380
 O         2.296807        -0.473988        -0.876524
 H         0.093009        -1.234838        -0.663040
 H        -0.859819        -0.194213         0.487262
 H        -0.305367         0.456256        -1.076374
 H         1.857771        -0.176847         2.379418
 H         1.757097        -1.582624         1.274368
 H         4.295254        -0.049727         1.780573
 H         4.092171        -1.255443         0.551421
 H         4.571551         2.118004        -1.126653
 H         3.832425         0.859520        -2.332484
 H         2.282762         1.967637         0.895830
