19
Iteration:  2386charge 0 multiplicity 1
 C        -0.082447        -0.342607        -0.212193
 C         1.383664         0.068928         0.093429
 C         2.074394        -0.509679         1.424774
 C         3.597998        -0.341515         1.032680
 C         3.241631         0.393884        -0.235401
 C         3.646094         1.293639        -1.455662
 O         2.506739         2.137284        -1.260319
 C         2.180932         1.466266         0.010713
 O         2.258751        -0.494813        -0.848712
 H        -0.123157        -0.137294        -1.288495
 H        -0.491743        -1.278784         0.157054
 H        -0.657010         0.501446         0.230302
 H         1.764029         0.041092         2.217757
 H         1.664829        -1.481204         1.465371
 H         4.050652         0.362720         1.634060
 H         4.142227        -1.237991         0.816896
 H         4.695792         1.687694        -1.266181
 H         3.703677         0.819230        -2.431132
 H         2.043126         2.208225         0.808690
