19
Iteration:  2592
 C        -0.133664        -0.198691        -0.035149
 C         1.426820         0.092718         0.110632
 C         2.068688        -0.669516         1.323416
 C         3.571519        -0.330882         1.077023
 C         3.289342         0.390142        -0.240906
 C         3.853878         1.474261        -1.323306
 O         2.411717         1.937644        -1.406133
 C         2.095174         1.453693        -0.078013
 O         2.263970        -0.455914        -0.876848
 H        -0.412802        -0.574335        -1.051023
 H        -0.573780        -0.905660         0.681940
 H        -0.703152         0.679020         0.091467
 H         1.775756        -0.247254         2.342371
 H         1.789325        -1.676104         1.046204
 H         4.063301         0.425260         1.695400
 H         4.179532        -1.290761         0.865607
 H         4.571817         2.158499        -1.043744
 H         4.188784         1.103341        -2.265216
 H         1.796087         2.186250         0.652915
