19
Iteration:  4884
 C        -0.016888        -0.177407        -0.160550
 C         1.338839         0.171728         0.173187
 C         1.862908         0.156159         1.673522
 C         3.385110         0.196405         1.375424
 C         3.308881         0.495523        -0.130628
 C         3.824413         0.775183        -1.644290
 O         2.576344         1.458009        -1.918800
 C         2.197302         1.432188        -0.428255
 O         2.327504        -0.688925        -0.415374
 H         0.034188        -1.324874        -0.208570
 H        -0.831910         0.075387         0.516212
 H        -0.185877         0.127247        -1.230825
 H         1.485604         1.106930         2.191470
 H         1.415818        -0.650842         2.349200
 H         3.876631         0.859084         2.141997
 H         3.765152        -0.806927         1.535966
 H         4.638248         1.402237        -1.543326
 H         3.938035        -0.116315        -2.262674
 H         2.148844         2.512109         0.044583
