19
Iteration:   640charge 0 multiplicity 1
 C        -0.145902        -0.166341        -0.095802
 C         1.404349         0.001060         0.086540
 C         2.061961        -0.662072         1.382045
 C         3.592737        -0.350072         1.042376
 C         3.341588         0.466945        -0.263448
 C         3.736783         1.366713        -1.320875
 O         2.396241         1.981315        -1.270114
 C         2.131530         1.376145         0.003903
 O         2.305615        -0.372069        -1.031807
 H        -0.278801        -1.105135        -0.675626
 H        -0.561099        -0.191775         0.921223
 H        -0.477848         0.679901        -0.719837
 H         1.624456        -0.177340         2.298239
 H         1.862241        -1.676617         1.561416
 H         4.049256         0.260852         1.855785
 H         4.260059        -1.173863         0.943545
 H         4.414017         2.163042        -1.138443
 H         3.929692         0.897687        -2.303725
 H         2.017949         2.294486         0.561555
