19
Iteration:  2990charge 0 multiplicity 1
 C        -0.091977        -0.108096        -0.071664
 C         1.394426         0.106715         0.116397
 C         2.067666        -0.424749         1.396540
 C         3.515835        -0.126560         1.253082
 C         3.257382         0.424521        -0.229523
 C         3.762179         1.202218        -1.355174
 O         2.520052         1.871316        -1.519271
 C         2.059053         1.403805        -0.184514
 O         2.323643        -0.623492        -0.881108
 H        -0.659344         0.764433        -0.445807
 H        -0.392357        -0.982712        -0.683158
 H        -0.600368        -0.313215         0.931216
 H         1.598747         0.039568         2.338673
 H         1.897937        -1.558553         1.577952
 H         4.012237         0.486396         2.090638
 H         4.156884        -1.020065         1.023325
 H         4.467711         2.099711        -1.224765
 H         4.047337         0.666711        -2.309925
 H         1.948155         2.217660         0.491591
