19
Iteration:  2944
 C        -0.018441        -0.159923        -0.302043
 C         1.410176         0.102359         0.121923
 C         2.039729        -0.281380         1.568721
 C         3.576962        -0.245272         1.119424
 C         3.278544         0.342989        -0.261262
 C         3.694506         1.254282        -1.425603
 O         2.430209         1.988422        -1.389758
 C         2.143982         1.374414        -0.091049
 O         2.269232        -0.654383        -0.781975
 H         0.029188        -0.387759        -1.372428
 H        -0.538837        -1.032618         0.197711
 H        -0.883149         0.505657        -0.077554
 H         1.602821         0.300506         2.375925
 H         1.813321        -1.406788         1.741998
 H         4.377552         0.412333         1.573889
 H         3.975459        -1.223357         1.119419
 H         4.573757         1.890168        -1.238039
 H         3.738764         0.915976        -2.486090
 H         2.160634         2.134292         0.649553
