19
Iteration:  3634charge 0 multiplicity 1
 C        -0.093696        -0.261509        -0.216881
 C         1.330929         0.145526         0.149512
 C         1.892789         0.138294         1.594340
 C         3.427949         0.133151         1.328562
 C         3.321765         0.365834        -0.216754
 C         3.832292         0.867508        -1.614538
 O         2.606540         1.686016        -1.733984
 C         2.174792         1.440648        -0.316035
 O         2.277278        -0.753340        -0.497545
 H        -0.230100        -1.017863         0.606946
 H        -0.856799         0.533981         0.018287
 H        -0.129753        -0.663372        -1.209707
 H         1.498950         0.891608         2.139343
 H         1.667403        -0.816273         2.150735
 H         3.952166         0.915200         1.805422
 H         3.905599        -0.737941         1.670591
 H         4.644845         1.636502        -1.394054
 H         4.191052         0.140114        -2.416777
 H         2.123082         2.330740         0.323804
