19
Iteration:   507
 C        -0.061171        -0.170036        -0.116406
 C         1.352153         0.106794         0.044683
 C         2.169819        -0.657057         1.310340
 C         3.618201        -0.360649         1.028394
 C         3.300186         0.468164        -0.154434
 C         3.734374         1.327893        -1.288649
 O         2.390691         1.984539        -1.285625
 C         2.124040         1.359850         0.038894
 O         2.197630        -0.337732        -1.034776
 H        -0.174289        -1.322598        -0.103414
 H        -0.871883         0.120104         0.610272
 H        -0.456877         0.092030        -1.121678
 H         2.007683        -0.215259         2.328821
 H         1.812811        -1.687440         1.215594
 H         4.147293         0.199153         1.777451
 H         4.289118        -1.301949         0.889483
 H         4.471021         2.026406        -0.959635
 H         4.041552         0.787306        -2.151189
 H         2.010588         2.169904         0.777143
