19
Iteration:  2696charge 0 multiplicity 1
 C        -0.095353        -0.219369        -0.176270
 C         1.365675         0.028479         0.108076
 C         2.097480        -0.533625         1.411207
 C         3.592771        -0.370075         1.035506
 C         3.295044         0.461215        -0.216249
 C         3.783475         1.343592        -1.355406
 O         2.412845         1.986808        -1.381210
 C         2.131789         1.477429        -0.019655
 O         2.263739        -0.435664        -0.915849
 H        -0.645063         0.508531        -0.766475
 H        -0.334159        -1.229643        -0.449366
 H        -0.655299        -0.314103         0.829697
 H         1.677061        -0.049532         2.277978
 H         1.926273        -1.606627         1.662069
 H         4.128096         0.150975         1.828118
 H         3.968310        -1.347225         0.943465
 H         4.560258         2.032588        -1.159817
 H         3.911213         0.669805        -2.195449
 H         2.134375         2.228580         0.823135
