19
Iteration:  4956
 C        -0.150570        -0.148674        -0.041266
 C         1.320549         0.183344         0.162561
 C         1.895456         0.040660         1.585459
 C         3.395232         0.330590         1.356513
 C         3.293383         0.403334        -0.170828
 C         3.906028         0.849618        -1.488230
 O         2.633233         1.463225        -1.957273
 C         2.146275         1.377227        -0.468711
 O         2.343473        -0.723146        -0.455425
 H        -0.475759        -0.534104         0.863290
 H        -0.718525         0.793590        -0.192060
 H        -0.358953        -0.854253        -0.860120
 H         1.349444         0.597830         2.357613
 H         1.691254        -0.958709         1.869652
 H         3.880867         1.056322         1.960961
 H         3.960942        -0.635781         1.430436
 H         4.435119         1.840348        -1.246383
 H         4.371700         0.177414        -2.244092
 H         2.114759         2.324770        -0.077413
