19
Iteration:   122
 C        -0.046319        -0.117772        -0.010182
 C         1.424394        -0.057175         0.015711
 C         2.110230        -0.661466         1.271856
 C         3.606978        -0.503863         0.910459
 C         3.272112         0.367612        -0.390744
 C         3.720231         1.555388        -1.186739
 O         2.354552         2.223155        -1.132460
 C         2.041088         1.338559         0.016263
 O         2.339585        -0.524201        -1.021956
 H        -0.289264        -0.840402        -0.744416
 H        -0.503873        -0.453803         0.946233
 H        -0.513619         0.821761        -0.445473
 H         1.645979        -0.228246         2.194415
 H         1.863275        -1.641603         1.124902
 H         4.285150         0.025723         1.649397
 H         4.004992        -1.410107         0.612504
 H         4.484121         2.153106        -0.660537
 H         4.132976         1.610428        -2.142609
 H         1.785173         1.834270         0.908247
