19
Iteration:  2697
 C        -0.096278        -0.213743        -0.171152
 C         1.363128         0.016119         0.108604
 C         2.094512        -0.530767         1.413433
 C         3.585093        -0.366937         1.038143
 C         3.303556         0.464772        -0.221717
 C         3.782125         1.330829        -1.353815
 O         2.410035         1.985896        -1.377791
 C         2.136413         1.480952        -0.026715
 O         2.267192        -0.434327        -0.917834
 H        -0.687426         0.508228        -0.760552
 H        -0.330302        -1.213827        -0.479648
 H        -0.622537        -0.326479         0.862435
 H         1.685721        -0.076518         2.283648
 H         1.911553        -1.577625         1.627804
 H         4.120615         0.154613         1.784547
 H         3.995453        -1.348160         0.941218
 H         4.543486         2.082958        -1.108307
 H         3.944050         0.684818        -2.198196
 H         2.128027         2.225096         0.822745
