19
Iteration:  2744charge 0 multiplicity 1
 C        -0.185609        -0.191160        -0.036262
 C         1.355622         0.042654        -0.003662
 C         2.084373        -0.535098         1.439618
 C         3.596267        -0.184789         1.077282
 C         3.307297         0.367939        -0.271082
 C         3.821847         1.409972        -1.340760
 O         2.451827         2.070612        -1.352845
 C         2.163939         1.308660        -0.116275
 O         2.248031        -0.629244        -0.946804
 H        -0.531542         0.909357        -0.134588
 H        -0.705078        -0.660193        -0.949039
 H        -0.753479        -0.684978         0.764978
 H         1.720470        -0.102998         2.391497
 H         1.843989        -1.552827         1.593184
 H         4.012525         0.497761         1.806966
 H         4.277157        -1.091559         0.956975
 H         4.498280         1.993009        -0.579428
 H         4.224546         1.137313        -2.347811
 H         2.038217         1.977137         0.788728
