19
Iteration:  1040charge 0 multiplicity 1
 C        -0.093629        -0.200269        -0.066102
 C         1.306138         0.108137         0.145261
 C         2.094493        -0.736722         1.285193
 C         3.584491        -0.367064         1.027900
 C         3.290421         0.423105        -0.296299
 C         3.798621         1.502968        -1.311025
 O         2.456353         2.120639        -1.355715
 C         2.148864         1.383292        -0.042344
 O         2.233259        -0.480211        -0.910643
 H        -0.304684        -1.204407         0.399532
 H        -0.861524         0.424933         0.398759
 H        -0.374457        -0.319539        -1.145296
 H         1.771690        -0.620753         2.345635
 H         1.900014        -1.710141         1.069629
 H         4.006580         0.157337         1.941291
 H         4.034339        -1.347656         1.051271
 H         4.658844         2.029949        -0.827315
 H         4.121790         1.065004        -2.259157
 H         2.005961         2.035535         0.863406
