19
Iteration:  3728charge 0 multiplicity 1
 C        -0.098336        -0.094163        -0.128050
 C         1.342973         0.086428         0.071907
 C         1.906970         0.141637         1.564534
 C         3.457910         0.261202         1.285685
 C         3.232582         0.370724        -0.186862
 C         3.858151         0.958925        -1.416111
 O         2.628023         1.530262        -1.798184
 C         2.083046         1.281491        -0.389781
 O         2.355640        -0.813427        -0.495060
 H        -0.396562         0.151414        -1.144952
 H        -0.520608        -1.116622         0.015492
 H        -0.649188         0.676682         0.482684
 H         1.397875         0.987891         2.136744
 H         1.642139        -0.848656         2.071468
 H         3.956960         1.179920         1.708387
 H         4.067290        -0.622174         1.691880
 H         4.638459         1.677188        -1.418014
 H         4.086793         0.163097        -2.173205
 H         2.192025         2.283397         0.194127
