19
Iteration:   463charge 0 multiplicity 1
 C        -0.059924        -0.112104        -0.184891
 C         1.416185         0.018083         0.092194
 C         2.064683        -0.504534         1.390531
 C         3.544661        -0.340555         1.031928
 C         3.302750         0.354268        -0.378364
 C         3.681464         1.467289        -1.329162
 O         2.390436         2.205150        -1.165616
 C         2.149194         1.330715        -0.063066
 O         2.311091        -0.720533        -0.924055
 H        -0.072224        -1.037584        -0.936070
 H        -0.634014        -0.437087         0.749678
 H        -0.491854         0.821350        -0.628039
 H         1.782550         0.149658         2.234141
 H         1.948248        -1.597127         1.634736
 H         4.169339         0.119074         1.788876
 H         4.096781        -1.390617         0.903460
 H         4.486997         2.129195        -1.088322
 H         3.664461         1.167974        -2.341248
 H         2.181232         1.870456         0.901502
