19
Iteration:  4542
 C        -0.069503        -0.116431        -0.055016
 C         1.366612         0.232758         0.145376
 C         1.833726         0.128499         1.609246
 C         3.360968         0.226125         1.326735
 C         3.333991         0.440153        -0.162425
 C         3.868860         0.859757        -1.488677
 O         2.542982         1.239767        -1.940580
 C         2.200485         1.436550        -0.468870
 O         2.374295        -0.641758        -0.435864
 H        -0.160133        -1.156831        -0.255559
 H        -0.825533         0.173272         0.664812
 H        -0.459900         0.394041        -0.885527
 H         1.138653         0.774398         2.229416
 H         1.694130        -0.856327         2.023665
 H         3.801595         0.999045         1.855619
 H         3.965214        -0.633067         1.607176
 H         4.513715         1.874115        -1.458642
 H         4.398719         0.025842        -2.002537
 H         2.069764         2.426712        -0.144879
