19
Iteration:   326charge 0 multiplicity 1
 C        -0.102983        -0.215605        -0.304267
 C         1.342127         0.040631         0.133306
 C         2.055137        -0.560638         1.405796
 C         3.616588        -0.348703         0.945514
 C         3.248603         0.387990        -0.302644
 C         3.697183         1.468018        -1.362094
 O         2.405362         2.152073        -1.154404
 C         2.226060         1.346677         0.019400
 O         2.294331        -0.570461        -0.859864
 H        -0.398897        -1.035046         0.246347
 H        -0.688439         0.612095         0.035062
 H        -0.208478        -0.325758        -1.356661
 H         1.559753        -0.269276         2.345333
 H         2.008833        -1.605110         1.331247
 H         4.311219         0.288761         1.597916
 H         3.972448        -1.268413         0.598542
 H         4.563273         2.124611        -1.159771
 H         3.851964         0.942760        -2.359802
 H         2.383150         1.920586         1.031509
