19
Iteration:  4098charge 0 multiplicity 1
 C        -0.082134        -0.146843        -0.076257
 C         1.317020         0.196207         0.132368
 C         1.854534         0.127887         1.612350
 C         3.424609         0.311298         1.419166
 C         3.332650         0.451868        -0.103457
 C         3.872313         0.800651        -1.460287
 O         2.593355         1.344942        -1.896319
 C         2.141929         1.343436        -0.541786
 O         2.352207        -0.620430        -0.542406
 H        -0.459115        -0.869931         0.664458
 H        -0.889840         0.715642        -0.097332
 H        -0.208040        -0.655495        -1.085575
 H         1.306018         0.829311         2.439893
 H         1.641579        -0.967266         1.826122
 H         3.948451         1.149173         1.963425
 H         4.082790        -0.617736         1.653655
 H         4.600644         1.597139        -1.483728
 H         4.095023        -0.075480        -2.033791
 H         1.977471         2.372418        -0.127375
