19
Iteration:  4394
 C        -0.108977        -0.075382        -0.148455
 C         1.335433         0.212210         0.117663
 C         1.924901         0.167388         1.614619
 C         3.446645         0.251895         1.283983
 C         3.275106         0.330323        -0.177988
 C         3.877519         0.991278        -1.409366
 O         2.551829         1.354007        -1.896618
 C         2.122652         1.270299        -0.424119
 O         2.344029        -0.775578        -0.433789
 H        -0.760987        -0.366123         0.684733
 H        -0.674661         0.820225        -0.509966
 H        -0.252352        -0.839878        -0.927361
 H         1.644195         0.973503         2.274562
 H         1.558899        -0.785945         1.976907
 H         3.938826         1.226948         1.699597
 H         3.972013        -0.627463         1.701716
 H         4.523178         1.938159        -1.083154
 H         4.486913         0.320141        -2.083032
 H         2.300668         2.380265        -0.235039
