19
Iteration:  4902
 C        -0.060454        -0.234643        -0.166509
 C         1.353192         0.226683         0.123528
 C         1.842012         0.340162         1.617498
 C         3.417747         0.183316         1.334620
 C         3.310098         0.292097        -0.204245
 C         3.889329         0.859780        -1.540857
 O         2.531585         1.504304        -1.783452
 C         2.177687         1.354042        -0.423154
 O         2.352446        -0.779025        -0.431340
 H        -0.264245        -1.206437         0.212572
 H        -0.675220         0.462508         0.479561
 H        -0.249424        -0.135882        -1.261846
 H         1.487659         1.237522         2.111944
 H         1.428207        -0.499278         2.086313
 H         3.959841         1.049828         1.686385
 H         3.854408        -0.812444         1.669072
 H         4.633602         1.729348        -1.673094
 H         4.007631         0.083070        -2.331519
 H         2.070691         2.308853         0.060162
