19
Iteration:  2978charge 0 multiplicity 1
 C        -0.123795        -0.089143        -0.104443
 C         1.352916         0.018064         0.023462
 C         1.984637        -0.368034         1.503325
 C         3.575556        -0.128816         1.160677
 C         3.283873         0.353586        -0.222517
 C         3.765942         1.256216        -1.432618
 O         2.437229         1.881937        -1.422238
 C         2.142218         1.367701        -0.142410
 O         2.368213        -0.586959        -0.855477
 H        -0.400819         0.651599        -0.868851
 H        -0.232026        -1.112620        -0.572949
 H        -0.655554         0.045190         0.875209
 H         1.536638         0.182731         2.362643
 H         1.873936        -1.519348         1.619742
 H         4.160441         0.697959         1.686274
 H         4.025080        -1.110879         1.323410
 H         4.635947         1.899505        -1.183926
 H         3.935779         0.591148        -2.320585
 H         2.004746         2.139766         0.585974
