19
Iteration:   800
 C        -0.038376        -0.111952        -0.113153
 C         1.391213        -0.030348         0.021633
 C         2.144865        -0.581409         1.316654
 C         3.601828        -0.317083         1.077052
 C         3.262107         0.328229        -0.282710
 C         3.718549         1.397781        -1.292268
 O         2.397164         2.107899        -1.198805
 C         2.084043         1.353090         0.058930
 O         2.267049        -0.515461        -1.079870
 H        -0.449584        -0.958766         0.502096
 H        -0.652996         0.805317         0.043465
 H        -0.337457        -0.401187        -1.133504
 H         1.689104        -0.000858         2.189923
 H         1.981330        -1.623117         1.616840
 H         4.226415         0.381761         1.674721
 H         4.265375        -1.219138         1.107832
 H         4.491193         2.091328        -1.150001
 H         3.697973         1.109482        -2.297705
 H         2.035357         1.982597         0.960637
