19
Iteration:  4097charge 0 multiplicity 1
 C        -0.087042        -0.155436        -0.079655
 C         1.321399         0.196497         0.128681
 C         1.855612         0.129899         1.608505
 C         3.416753         0.312297         1.425686
 C         3.336904         0.445277        -0.118498
 C         3.882151         0.792157        -1.460834
 O         2.588963         1.349799        -1.888292
 C         2.143809         1.334471        -0.534125
 O         2.349582        -0.608544        -0.536710
 H        -0.473153        -0.881479         0.657446
 H        -0.855343         0.697880        -0.089807
 H        -0.205696        -0.622999        -1.103800
 H         1.329053         0.848731         2.421140
 H         1.678314        -0.924616         1.871773
 H         3.927627         1.121560         1.941745
 H         4.070471        -0.612713         1.632269
 H         4.584907         1.608087        -1.531072
 H         4.087402        -0.068431        -2.019567
 H         1.959526         2.395599        -0.131175
