19
Iteration:  4790charge 0 multiplicity 1
 C        -0.134653        -0.172400        -0.064702
 C         1.385499         0.123092         0.069468
 C         1.863464         0.277338         1.532960
 C         3.456233         0.183759         1.298884
 C         3.313775         0.443005        -0.116943
 C         3.929395         0.837026        -1.394636
 O         2.573320         1.439230        -1.791751
 C         2.137342         1.329440        -0.497916
 O         2.307735        -0.726062        -0.521332
 H        -0.655609        -0.993383         0.500200
 H        -0.657027         0.729946         0.297587
 H        -0.444084        -0.269526        -1.082796
 H         1.469439         1.124250         1.994273
 H         1.543954        -0.530511         2.157180
 H         4.002127         1.002315         1.790739
 H         4.013963        -0.745913         1.454603
 H         4.651947         1.737503        -1.315321
 H         4.164269         0.073693        -2.146619
 H         1.955881         2.283061        -0.077675
