19
Iteration:  4531
 C        -0.128141        -0.142174        -0.126296
 C         1.315141         0.199019         0.149307
 C         1.834051         0.135201         1.646146
 C         3.360817         0.266030         1.402087
 C         3.312315         0.441686        -0.163194
 C         3.929728         0.812209        -1.554311
 O         2.503797         1.269331        -1.873688
 C         2.187347         1.377007        -0.464306
 O         2.436241        -0.588355        -0.486526
 H        -0.355416        -1.178751         0.006967
 H        -0.538687         0.358413         0.759343
 H        -0.385634         0.173502        -1.088168
 H         1.605723         0.986294         2.405391
 H         1.487784        -0.833131         1.960735
 H         3.869276         1.035316         1.854707
 H         3.767630        -0.729641         1.603249
 H         4.601864         1.821184        -1.467827
 H         4.395687         0.129333        -2.314052
 H         2.326244         2.352976        -0.142641
