19
Iteration:  1783charge 0 multiplicity 1
 C        -0.149000        -0.234573        -0.143339
 C         1.359516        -0.031339         0.066162
 C         2.142512        -0.516707         1.302718
 C         3.624211        -0.227703         1.003169
 C         3.260577         0.318221        -0.309949
 C         3.729620         1.369318        -1.304149
 O         2.482015         2.095860        -1.171419
 C         2.080179         1.353253         0.002128
 O         2.250016        -0.497488        -0.958005
 H        -0.636361        -1.168962         0.163558
 H        -0.655299         0.660865         0.309624
 H        -0.510588        -0.228324        -1.184963
 H         1.934476         0.089811         2.222610
 H         2.045284        -1.634413         1.509891
 H         4.162545         0.557489         1.633325
 H         4.262167        -1.253460         0.924584
 H         4.560362         2.085174        -0.960054
 H         3.979100         1.125982        -2.391589
 H         2.118073         1.932438         0.936745
