19
Iteration:  1451
 C        -0.103098        -0.099940        -0.037498
 C         1.384070        -0.036724         0.073588
 C         2.037942        -0.534237         1.295382
 C         3.600012        -0.337925         0.989362
 C         3.337429         0.386207        -0.298737
 C         3.756510         1.481011        -1.227372
 O         2.359937         2.063150        -1.288018
 C         2.150213         1.315604        -0.006395
 O         2.321532        -0.594115        -1.005974
 H        -0.597520        -1.114210         0.071862
 H        -0.597224         0.480487         0.771440
 H        -0.498342         0.290185        -1.025998
 H         1.560496        -0.046525         2.138416
 H         1.883432        -1.579731         1.306945
 H         4.158934         0.328016         1.805462
 H         4.153817        -1.264140         0.802444
 H         4.402620         2.265025        -0.814533
 H         4.049870         1.202252        -2.198959
 H         2.170416         1.947989         0.874231
