19
Iteration:  2963charge 0 multiplicity 1
 C        -0.106818        -0.156723        -0.261234
 C         1.391485         0.045244         0.150393
 C         1.992815        -0.336531         1.469593
 C         3.552421        -0.157848         1.129959
 C         3.332092         0.367947        -0.318946
 C         3.771046         1.234476        -1.465927
 O         2.412239         1.929612        -1.394448
 C         2.183068         1.340596        -0.026311
 O         2.318519        -0.633616        -0.790376
 H        -0.471007         0.374602        -1.157565
 H        -0.517273        -1.221241        -0.188953
 H        -0.621367         0.508686         0.496266
 H         1.794425         0.406893         2.197572
 H         1.633271        -1.238615         1.843635
 H         3.796502         0.597152         1.811024
 H         4.245663        -0.984533         1.112895
 H         4.453734         1.974998        -1.214715
 H         3.945718         0.800284        -2.417342
 H         2.204141         2.093553         0.835970
