19
Iteration:  4854
 C        -0.130843        -0.116471        -0.195012
 C         1.282400         0.263617         0.077769
 C         1.965359         0.092038         1.614549
 C         3.510560         0.310818         1.304457
 C         3.293826         0.459021        -0.100879
 C         3.822151         0.726822        -1.468647
 O         2.598925         1.323605        -1.765349
 C         2.134040         1.421996        -0.433480
 O         2.307210        -0.657331        -0.495405
 H         0.048474        -1.195211        -0.431905
 H        -0.763985        -0.076140         0.635601
 H        -0.433245         0.374860        -1.076156
 H         1.562435         0.870560         2.380640
 H         1.624847        -0.980806         1.897975
 H         3.751186         1.266352         1.790073
 H         4.068581        -0.532104         1.609394
 H         4.699752         1.491075        -1.434052
 H         4.019405        -0.132596        -2.158179
 H         1.945914         2.442292        -0.133936
