19
Iteration:   213
 C        -0.163547        -0.212916        -0.114089
 C         1.346961         0.071736         0.033871
 C         2.098650        -0.629887         1.326740
 C         3.648081        -0.459626         0.942437
 C         3.323474         0.385738        -0.280270
 C         3.713475         1.490364        -1.295837
 O         2.368948         2.075745        -1.120425
 C         2.134554         1.355518         0.038361
 O         2.360715        -0.407421        -1.030753
 H        -0.775016         0.694135        -0.411369
 H        -0.348821        -0.935102        -0.913839
 H        -0.790462        -0.519437         0.712214
 H         1.830033        -0.158080         2.283593
 H         1.746072        -1.716904         1.356410
 H         4.129560         0.142168         1.709965
 H         4.251290        -1.447275         0.700340
 H         4.563781         2.177082        -0.990629
 H         4.018289         1.174299        -2.318648
 H         2.028768         1.997387         0.970205
