19
Iteration:  4467
 C        -0.157846        -0.284664        -0.168803
 C         1.333461         0.145112         0.163144
 C         1.894080         0.275620         1.587464
 C         3.451988         0.326971         1.345308
 C         3.309609         0.302622        -0.158079
 C         3.845509         0.866525        -1.595538
 O         2.671150         1.617287        -1.818343
 C         2.211694         1.270180        -0.409948
 O         2.241303        -0.786796        -0.435382
 H        -0.776873        -0.759928         0.589543
 H        -0.885047         0.575977        -0.611414
 H        -0.225051        -0.940124        -1.022549
 H         1.700522         1.204747         2.280928
 H         1.640887        -0.581992         2.165720
 H         3.905179         1.270976         1.712882
 H         4.016882        -0.459580         1.920757
 H         4.777160         1.453373        -1.559724
 H         3.944918         0.048730        -2.315357
 H         2.193384         2.153700         0.226635
