19
Iteration:  1941
 C        -0.096794        -0.283770        -0.184718
 C         1.390882         0.089320         0.169340
 C         2.063980        -0.582019         1.439163
 C         3.546336        -0.426009         1.014875
 C         3.223033         0.471990        -0.309508
 C         3.747185         1.391054        -1.412477
 O         2.458224         2.050294        -1.300414
 C         2.163429         1.456028         0.024324
 O         2.290551        -0.448759        -0.887097
 H        -0.141073        -1.420048        -0.208835
 H        -0.857673         0.312910         0.337398
 H        -0.180166         0.113305        -1.207878
 H         1.879980        -0.101965         2.345873
 H         1.951878        -1.621883         1.512233
 H         4.184832         0.117421         1.762506
 H         3.830944        -1.426756         0.739656
 H         4.578065         2.093384        -1.118193
 H         3.923046         0.783864        -2.299859
 H         1.938130         2.239899         0.742211
