19
Iteration:  3418charge 0 multiplicity 1
 C        -0.163088        -0.037348        -0.119251
 C         1.340280         0.132928         0.156440
 C         1.908546        -0.191023         1.550848
 C         3.483893         0.066119         1.243478
 C         3.257551         0.433998        -0.249175
 C         3.979754         1.123085        -1.444250
 O         2.470513         1.526461        -1.753942
 C         2.116724         1.337671        -0.275588
 O         2.366297        -0.701649        -0.612656
 H        -0.237839        -0.928542        -0.785960
 H        -0.559464        -0.237906         0.883037
 H        -0.505050         0.855176        -0.553112
 H         1.537257         0.618673         2.280708
 H         1.826096        -1.141551         1.984466
 H         3.868733         0.981285         1.749257
 H         4.210836        -0.741403         1.592315
 H         4.440930         2.153143        -1.131205
 H         4.474508         0.616542        -2.200592
 H         2.017623         2.320736         0.181056
