19
Iteration:   441charge 0 multiplicity 1
 C        -0.172493        -0.206083        -0.230789
 C         1.374920         0.001101         0.009014
 C         2.090840        -0.478309         1.414605
 C         3.639889        -0.274563         0.999156
 C         3.285030         0.359166        -0.321273
 C         3.689854         1.352622        -1.381895
 O         2.445652         2.080739        -1.145327
 C         2.169343         1.278822         0.094532
 O         2.282818        -0.490179        -0.949503
 H        -0.258457        -0.928808        -1.118486
 H        -0.611725        -0.570004         0.753610
 H        -0.469798         0.850955        -0.407767
 H         1.708965         0.242567         2.147471
 H         1.777590        -1.545496         1.645597
 H         4.105085         0.489708         1.611925
 H         4.417376        -1.149206         0.879643
 H         4.536548         1.925178        -1.055397
 H         3.802214         1.039031        -2.395010
 H         1.953777         1.909442         0.950907
