19
Iteration:  3901
 C        -0.040264        -0.261780        -0.213293
 C         1.356929         0.152330         0.138892
 C         1.864557         0.261981         1.577293
 C         3.465247         0.221345         1.404122
 C         3.296997         0.448314        -0.127156
 C         3.882442         0.706842        -1.556522
 O         2.541080         1.524819        -1.854568
 C         2.153573         1.445229        -0.433803
 O         2.306151        -0.697552        -0.414768
 H        -0.720579        -0.704242         0.591561
 H        -0.738675         0.561243        -0.442197
 H        -0.085086        -0.979296        -1.093672
 H         1.544193         1.224875         2.125396
 H         1.495339        -0.565842         2.056680
 H         3.944525         0.964261         2.068490
 H         3.790089        -0.871133         1.537937
 H         4.827784         1.412993        -1.520626
 H         4.040624        -0.249167        -2.096586
 H         2.144821         2.366640         0.098601
