19
Iteration:  1184
 C        -0.083840        -0.181292        -0.057950
 C         1.405089         0.055172         0.014361
 C         2.035248        -0.663044         1.285514
 C         3.569835        -0.395790         1.025603
 C         3.307122         0.449924        -0.298408
 C         3.744512         1.461406        -1.262566
 O         2.399778         2.087987        -1.351033
 C         2.139918         1.417339        -0.022435
 O         2.317205        -0.501416        -0.884721
 H        -0.360650        -1.224321         0.219158
 H        -0.516593         0.421590         0.795166
 H        -0.628279         0.045456        -0.982084
 H         1.859164        -0.440047         2.331817
 H         1.826754        -1.720065         1.144383
 H         4.019720         0.063416         1.936699
 H         3.988808        -1.470467         0.874369
 H         4.498997         1.978811        -0.740696
 H         3.965544         1.181818        -2.322842
 H         2.007843         2.168287         0.792701
