19
Iteration:  4710
 C        -0.094745        -0.059641        -0.136452
 C         1.376566         0.062526         0.118356
 C         1.848752         0.181194         1.661476
 C         3.458296         0.344151         1.388912
 C         3.288407         0.323595        -0.158344
 C         3.852519         0.841794        -1.529807
 O         2.586975         1.539259        -1.802952
 C         2.107482         1.255058        -0.463252
 O         2.364943        -0.824793        -0.517840
 H        -0.705568        -0.466082         0.685714
 H        -0.422229         0.925418        -0.371157
 H        -0.415737        -0.551395        -1.090554
 H         1.411325         1.216378         1.836550
 H         1.837700        -0.655015         2.441394
 H         3.770882         1.314500         1.809826
 H         3.930767        -0.586688         1.668215
 H         4.726469         1.650021        -1.488743
 H         4.104778         0.206627        -2.446656
 H         2.037455         2.201956         0.009177
