19
Iteration:  1802
 C        -0.049241        -0.266581        -0.163146
 C         1.363632         0.066804         0.075595
 C         1.989588        -0.571812         1.422807
 C         3.617988        -0.368957         0.981988
 C         3.271339         0.462193        -0.280518
 C         3.685965         1.362677        -1.411679
 O         2.401193         2.137483        -1.227145
 C         2.221974         1.436490         0.071540
 O         2.332423        -0.525595        -0.930963
 H        -0.150823        -1.316023         0.133572
 H        -0.768727         0.448508         0.273068
 H        -0.328840        -0.387354        -1.187549
 H         1.638975        -0.065398         2.411458
 H         1.537927        -1.613782         1.296478
 H         4.170111         0.240100         1.701488
 H         4.086215        -1.285013         0.709203
 H         4.610748         1.938577        -1.273556
 H         3.725081         0.796424        -2.355137
 H         2.074900         2.119476         0.958553
