19
Iteration:  4066charge 0 multiplicity 1
 C        -0.061227        -0.219427        -0.208235
 C         1.361142         0.155397         0.127647
 C         1.795894         0.342862         1.604825
 C         3.469511         0.280171         1.354627
 C         3.278215         0.348760        -0.184621
 C         3.777099         0.807508        -1.477190
 O         2.594472         1.511736        -1.827416
 C         2.186884         1.345239        -0.456073
 O         2.356215        -0.814133        -0.398315
 H        -0.181648        -1.282127         0.031832
 H        -0.901676         0.396035         0.309804
 H        -0.118952        -0.089875        -1.316590
 H         1.492008         1.332280         2.106713
 H         1.541950        -0.474161         2.307436
 H         4.058060         1.168052         1.736124
 H         4.058436        -0.677514         1.485585
 H         4.589236         1.520905        -1.520425
 H         3.920247         0.015392        -2.216395
 H         2.192324         2.281804         0.049613
