19
Iteration:  4731charge 0 multiplicity 1
 C        -0.146941        -0.205754        -0.161364
 C         1.364067         0.231695         0.089846
 C         1.904517         0.227553         1.582841
 C         3.449285         0.251731         1.324500
 C         3.278654         0.363515        -0.147271
 C         3.842764         0.744073        -1.510150
 O         2.596824         1.492125        -1.787142
 C         2.116432         1.430757        -0.353920
 O         2.357505        -0.727987        -0.486473
 H        -0.581623        -0.731569         0.667916
 H        -0.704644         0.634412        -0.551569
 H        -0.097726        -0.936609        -1.006870
 H         1.426499         1.085710         2.197044
 H         1.695756        -0.832869         1.941495
 H         3.892399         1.223661         1.566245
 H         4.124148        -0.562407         1.625318
 H         4.864857         1.264134        -1.522389
 H         3.945433        -0.152413        -2.187677
 H         2.012055         2.344466         0.247560
