19
Iteration:  2232
 C        -0.087967        -0.278713        -0.225220
 C         1.382337        -0.004046         0.114911
 C         2.070448        -0.508077         1.456066
 C         3.570591        -0.333806         0.959449
 C         3.191888         0.369589        -0.297767
 C         3.738789         1.376272        -1.425343
 O         2.498399         2.153586        -1.241400
 C         2.185438         1.452089         0.027519
 O         2.238395        -0.502484        -0.849938
 H        -0.456731        -1.323113         0.178641
 H        -0.857464         0.473219         0.231437
 H        -0.083309        -0.396907        -1.463356
 H         1.851767        -0.042688         2.438843
 H         1.769988        -1.549614         1.483557
 H         4.177758         0.005284         1.729064
 H         4.145090        -1.247462         0.620449
 H         4.690767         1.968917        -1.164638
 H         3.834888         0.832660        -2.390518
 H         2.064835         2.098841         0.980606
