19
Iteration:  1572charge 0 multiplicity 1
 C        -0.109669        -0.138084        -0.186765
 C         1.351464        -0.003864         0.124074
 C         2.137572        -0.566967         1.350372
 C         3.685179        -0.375045         1.017070
 C         3.255197         0.415231        -0.286081
 C         3.666478         1.361795        -1.308954
 O         2.380184         2.087257        -1.219313
 C         2.139766         1.390910        -0.017039
 O         2.286795        -0.527969        -0.961030
 H        -0.418075        -1.215029        -0.103629
 H        -0.743465         0.531550         0.397319
 H        -0.261415         0.089301        -1.255016
 H         1.823891         0.149242         2.085356
 H         1.775256        -1.522723         1.627507
 H         4.171594         0.418835         1.712585
 H         4.398441        -1.221581         0.875390
 H         4.544250         1.891346        -0.864342
 H         4.032425         0.954258        -2.220227
 H         2.035588         2.074191         0.812205
