19
Iteration:  3226charge 0 multiplicity 1
 C        -0.038102        -0.243641        -0.268909
 C         1.386824         0.158643         0.150083
 C         1.991687        -0.229137         1.563797
 C         3.486573        -0.049849         1.219849
 C         3.278603         0.425986        -0.219187
 C         3.774151         1.006351        -1.507411
 O         2.490813         1.818864        -1.573461
 C         2.131337         1.441725        -0.214706
 O         2.292212        -0.567788        -0.622061
 H        -0.303277         0.507042        -0.942075
 H        -0.059029        -1.255978        -0.679954
 H        -0.597838        -0.145401         0.656137
 H         1.630740         0.364716         2.426654
 H         1.566632        -1.268842         1.845269
 H         4.088105         0.574590         1.864927
 H         3.952970        -1.000039         1.145862
 H         4.707162         1.617219        -1.511125
 H         3.845144         0.174317        -2.279687
 H         2.055140         2.396678         0.414568
