19
Iteration:  4675charge 0 multiplicity 1
 C        -0.133794        -0.064458        -0.139449
 C         1.318747         0.248663         0.116336
 C         1.935530         0.125555         1.579810
 C         3.466801         0.242908         1.366150
 C         3.312133         0.316958        -0.135520
 C         3.881377         0.907173        -1.406269
 O         2.501841         1.343895        -1.913391
 C         2.143082         1.352372        -0.537356
 O         2.350301        -0.737243        -0.446615
 H        -0.369668        -0.971431         0.305086
 H        -0.736878         0.718564         0.373133
 H        -0.273507        -0.123414        -1.220606
 H         1.479962         0.976748         2.241407
 H         1.607500        -0.724840         2.186991
 H         3.918187         1.093790         1.823855
 H         4.186329        -0.547420         1.637252
 H         4.480743         1.787723        -1.012307
 H         4.406008         0.292258        -2.177683
 H         2.129021         2.314366        -0.037774
