19
Iteration:   940
 C        -0.143196        -0.199653        -0.225886
 C         1.356313         0.040277         0.081823
 C         2.121155        -0.640479         1.349078
 C         3.649898        -0.332902         1.031082
 C         3.353103         0.387672        -0.237771
 C         3.736910         1.366209        -1.378583
 O         2.447187         1.959236        -1.286329
 C         2.122914         1.452756         0.150960
 O         2.179897        -0.346711        -0.933558
 H        -0.237171        -1.223572        -0.679800
 H        -0.620895        -0.316191         0.763361
 H        -0.787713         0.468273        -0.823027
 H         1.876924        -0.137833         2.246210
 H         1.940337        -1.729534         1.286587
 H         4.199848         0.254552         1.778296
 H         4.392526        -1.114200         0.785479
 H         4.614303         2.130003        -1.244600
 H         3.789360         0.831542        -2.348104
 H         1.976866         2.261626         1.000643
