19
Iteration:  2316
 C        -0.169154        -0.086017        -0.106063
 C         1.406968        -0.026450        -0.011242
 C         2.122302        -0.503800         1.427278
 C         3.586875        -0.266522         0.974282
 C         3.283770         0.351552        -0.362052
 C         3.735637         1.464851        -1.183606
 O         2.406064         1.983884        -1.310596
 C         2.106239         1.376665        -0.052561
 O         2.304926        -0.651397        -0.921471
 H        -0.297837        -0.586546        -1.035417
 H        -0.625915        -0.259849         0.847044
 H        -0.577417         0.927953        -0.289354
 H         1.943045        -0.040885         2.450056
 H         1.912458        -1.593093         1.526981
 H         4.003754         0.449074         1.766579
 H         4.143208        -1.259489         0.695735
 H         4.414893         2.183197        -0.719465
 H         4.247290         1.280741        -2.147244
 H         2.132125         1.951759         0.872377
