19
Iteration:  1967
 C        -0.073567        -0.232477        -0.266742
 C         1.398875         0.107405         0.075199
 C         2.060513        -0.421509         1.427411
 C         3.675508        -0.404110         0.996871
 C         3.232903         0.383104        -0.336966
 C         3.679181         1.405939        -1.344494
 O         2.375648         2.089766        -1.183427
 C         2.179743         1.365376         0.023369
 O         2.246152        -0.604709        -0.903712
 H        -0.341550        -1.263669         0.027348
 H        -0.674100         0.644297         0.054281
 H        -0.106629        -0.160627        -1.394456
 H         1.989890         0.315425         2.280150
 H         1.799053        -1.467930         1.788582
 H         4.180617         0.187166         1.707498
 H         4.100630        -1.381430         0.861058
 H         4.461820         2.018406        -0.951022
 H         3.942234         1.042719        -2.359267
 H         2.399899         1.966362         0.979947
