19
Iteration:   143charge 0 multiplicity 1
 C        -0.153437        -0.188950        -0.174181
 C         1.334197        -0.045277         0.093450
 C         2.135438        -0.681999         1.334541
 C         3.632574        -0.366342         0.869817
 C         3.282475         0.395882        -0.364465
 C         3.711979         1.545746        -1.244026
 O         2.426755         2.151149        -1.054236
 C         2.177206         1.309803         0.103960
 O         2.249497        -0.502821        -1.087077
 H        -0.407672        -0.592410        -1.120935
 H        -0.627708        -0.845186         0.589786
 H        -0.710962         0.778621        -0.143430
 H         2.003867        -0.047081         2.235071
 H         1.843058        -1.668865         1.551086
 H         4.071009         0.372441         1.583147
 H         4.286954        -1.145517         0.711241
 H         4.548120         2.187883        -0.848512
 H         3.986528         1.305327        -2.252496
 H         2.284299         1.762533         1.019414
