19
Iteration:  2182
 C        -0.102229        -0.066963        -0.112499
 C         1.398811        -0.009167         0.082399
 C         2.038894        -0.572475         1.338856
 C         3.577941        -0.312604         1.039742
 C         3.297788         0.350081        -0.253284
 C         3.726834         1.479611        -1.321367
 O         2.349554         1.977739        -1.312493
 C         2.179502         1.333560        -0.013183
 O         2.335561        -0.542904        -0.975069
 H        -0.516508        -0.844405         0.534122
 H        -0.372068         0.863096         0.352567
 H        -0.551718        -0.203761        -1.038385
 H         1.581774        -0.046713         2.224689
 H         1.854128        -1.657563         1.557773
 H         4.216272         0.393216         1.744218
 H         4.243005        -1.160982         0.885398
 H         4.417121         2.220754        -0.832330
 H         4.196659         1.161357        -2.279270
 H         2.102589         1.992998         0.810135
