19
Iteration:  1406charge 0 multiplicity 1
 C        -0.051868        -0.232292        -0.244610
 C         1.366752         0.093895         0.124094
 C         2.092541        -0.606911         1.355838
 C         3.652876        -0.371435         0.939863
 C         3.257293         0.471074        -0.250687
 C         3.627970         1.375999        -1.382925
 O         2.462196         2.167520        -1.209755
 C         2.168575         1.360979         0.114249
 O         2.241063        -0.546159        -0.891344
 H        -0.530786        -1.199743        -0.075743
 H        -0.827298         0.489008         0.040221
 H        -0.121792        -0.107755        -1.342264
 H         1.931329        -0.201554         2.304717
 H         1.685070        -1.599170         1.293151
 H         4.170539         0.331739         1.727514
 H         4.182576        -1.322802         0.885232
 H         4.589220         1.827131        -1.197944
 H         3.682970         0.770618        -2.275088
 H         2.161966         2.089255         0.888609
