19
Iteration:  1556
 C        -0.101215        -0.168050        -0.222938
 C         1.360532        -0.020548        -0.034205
 C         2.087198        -0.447698         1.468359
 C         3.602984        -0.300459         0.972096
 C         3.285822         0.354915        -0.346293
 C         3.698955         1.417616        -1.386957
 O         2.454860         2.141927        -1.138535
 C         2.081873         1.306888         0.060635
 O         2.336917        -0.607054        -0.920065
 H        -0.498440        -1.169956        -0.173012
 H        -0.619812         0.281246         0.647352
 H        -0.498339         0.329146        -1.105000
 H         1.978277         0.079640         2.493835
 H         1.858287        -1.544896         1.718424
 H         4.293039         0.214986         1.560776
 H         4.008082        -1.303134         0.863530
 H         4.606771         2.080414        -1.279509
 H         3.594208         0.962526        -2.430019
 H         1.964282         1.907685         1.006755
