19
Iteration:     3
 C        -0.084759        -0.195669        -0.161254
 C         1.399623         0.012552         0.038153
 C         2.106720        -0.752484         1.238529
 C         3.622429        -0.486217         0.858524
 C         3.260619         0.413567        -0.316731
 C         3.689213         1.532817        -1.278528
 O         2.385265         2.180705        -1.019632
 C         2.160078         1.327839         0.143208
 O         2.251213        -0.392046        -1.033013
 H        -0.567235         0.121718         0.728193
 H        -0.390666         0.438807        -1.013145
 H        -0.239837        -1.276157        -0.362650
 H         1.909081        -0.269754         2.262439
 H         1.888900        -1.780539         1.295990
 H         4.190188         0.028166         1.701979
 H         4.158669        -1.355414         0.552581
 H         4.567754         2.156541        -0.930965
 H         3.871069         1.271066        -2.286063
 H         2.121817         1.933518         1.126739
