19
Iteration:   698
 C        -0.072833        -0.254670        -0.194312
 C         1.324766         0.026044         0.055946
 C         2.119420        -0.524421         1.477824
 C         3.620352        -0.383358         1.012193
 C         3.261677         0.416733        -0.385470
 C         3.771825         1.425885        -1.354926
 O         2.473811         2.163826        -1.208225
 C         2.143903         1.375675         0.013673
 O         2.196109        -0.540887        -0.890489
 H        -0.192531        -1.073060        -0.966073
 H        -0.741703        -0.735263         0.605653
 H        -0.721167         0.552612        -0.663297
 H         1.669077         0.063521         2.262972
 H         1.835240        -1.619159         1.532664
 H         4.246216         0.312749         1.589008
 H         4.065894        -1.379588         0.880663
 H         4.582349         2.008027        -1.088587
 H         3.856752         0.965762        -2.361296
 H         2.197823         2.068332         0.786985
