19
Iteration:  4022
 C        -0.089214        -0.194205        -0.233720
 C         1.268579         0.150876         0.175617
 C         1.854706         0.276672         1.615933
 C         3.465019         0.370767         1.320964
 C         3.328553         0.358918        -0.167911
 C         3.886421         0.758163        -1.445868
 O         2.567634         1.435676        -1.864638
 C         2.177556         1.314744        -0.448176
 O         2.353381        -0.707259        -0.444658
 H        -0.142100        -1.262236        -0.474987
 H        -0.818935        -0.221262         0.678832
 H        -0.567562         0.510960        -0.965505
 H         1.445531         1.238381         2.157202
 H         1.508913        -0.563983         2.209195
 H         4.054643         1.242644         1.719932
 H         3.875197        -0.611049         1.750680
 H         4.621189         1.581083        -1.429945
 H         3.999345        -0.166833        -2.049559
 H         2.142587         2.246820         0.038670
