19
Iteration:  4115
 C        -0.138247        -0.120433        -0.058152
 C         1.363148         0.257223         0.083754
 C         1.878470         0.027258         1.580261
 C         3.416362         0.305452         1.377799
 C         3.228369         0.460111        -0.203078
 C         3.947484         0.856512        -1.419224
 O         2.610705         1.330905        -1.951929
 C         2.098739         1.465168        -0.445372
 O         2.353466        -0.786402        -0.437514
 H        -0.506810        -0.551461         0.884856
 H        -0.606137         0.780093        -0.185826
 H        -0.286450        -0.702122        -0.945080
 H         1.487967         0.648537         2.284419
 H         1.768048        -0.992153         1.915481
 H         3.695467         1.249966         1.799016
 H         4.034997        -0.505821         1.655753
 H         4.592475         1.803772        -1.362463
 H         4.430793         0.069854        -2.055613
 H         1.982801         2.546953        -0.265288
