19
Iteration:  4367charge 0 multiplicity 1
 C        -0.095645        -0.107248        -0.208736
 C         1.381033         0.081612         0.083983
 C         1.879746         0.251638         1.696597
 C         3.470242         0.357005         1.332024
 C         3.314492         0.327758        -0.173081
 C         3.863988         0.854743        -1.513958
 O         2.577548         1.486869        -1.782230
 C         2.120540         1.312250        -0.379225
 O         2.315301        -0.843443        -0.513802
 H        -0.687105        -0.664696         0.542393
 H        -0.622587         0.842039        -0.237367
 H        -0.311133        -0.610489        -1.155578
 H         1.488881         1.203824         2.122918
 H         1.608067        -0.647448         2.272104
 H         3.815155         1.316442         1.590601
 H         4.035416        -0.464033         1.804661
 H         4.664427         1.464734        -1.407632
 H         4.084347         0.104678        -2.239159
 H         1.980715         2.300187        -0.116404
