19
Iteration:  2503
 C        -0.044242        -0.223497        -0.222843
 C         1.399100         0.081865         0.108599
 C         2.047076        -0.495494         1.436768
 C         3.563739        -0.220894         1.089355
 C         3.280718         0.339132        -0.342695
 C         3.679417         1.339676        -1.463334
 O         2.469780         2.061613        -1.253717
 C         2.195565         1.371460         0.020897
 O         2.246691        -0.563874        -0.846039
 H        -0.409857         0.640151        -0.751762
 H        -0.051360        -1.078958        -0.831023
 H        -0.692612        -0.474838         0.653428
 H         1.615159         0.112020         2.362062
 H         1.758641        -1.549763         1.503939
 H         4.170826         0.506963         1.578337
 H         4.015514        -1.273277         0.998320
 H         4.582217         1.879795        -1.289476
 H         3.621055         1.023095        -2.475020
 H         2.018281         2.051043         0.824757
