19
Iteration:  4856charge 0 multiplicity 1
 C        -0.119128        -0.127049        -0.199289
 C         1.278607         0.269578         0.075984
 C         1.948637         0.096879         1.618459
 C         3.519500         0.305069         1.303982
 C         3.298948         0.452727        -0.089669
 C         3.823704         0.716487        -1.479193
 O         2.583206         1.329472        -1.757177
 C         2.126870         1.434618        -0.453855
 O         2.320713        -0.640376        -0.501052
 H         0.002119        -1.179293        -0.432020
 H        -0.801251        -0.094145         0.656181
 H        -0.432760         0.356339        -1.091475
 H         1.645026         0.786368         2.432604
 H         1.630032        -0.894921         1.906178
 H         3.799784         1.220342         1.797671
 H         4.051875        -0.576198         1.666831
 H         4.730388         1.474149        -1.418576
 H         4.003358        -0.207771        -2.071451
 H         1.934193         2.394729        -0.140388
