19
Iteration:  3737
 C        -0.171511        -0.125608        -0.162299
 C         1.294208         0.110446         0.140162
 C         1.927663         0.158934         1.570150
 C         3.457872         0.271717         1.348281
 C         3.301861         0.388916        -0.146353
 C         3.811139         0.843740        -1.462504
 O         2.621517         1.550161        -1.787055
 C         2.141573         1.344688        -0.386446
 O         2.374438        -0.810166        -0.574680
 H        -0.286917         0.272155        -1.187723
 H        -0.199653        -1.198979        -0.185047
 H        -0.713712         0.338628         0.706257
 H         1.551628         1.024429         2.206541
 H         1.643023        -0.719523         2.047211
 H         3.907424         1.219890         1.778284
 H         4.007806        -0.704684         1.608917
 H         4.704956         1.597700        -1.403526
 H         4.104875         0.129901        -2.186324
 H         1.744798         2.364799         0.079547
