19
Iteration:  4750
 C        -0.064582        -0.311757        -0.186455
 C         1.274008         0.252685         0.210955
 C         1.843374         0.127317         1.627483
 C         3.462808         0.248556         1.332682
 C         3.289917         0.416876        -0.166173
 C         3.861898         0.766912        -1.558871
 O         2.612345         1.479931        -1.840532
 C         2.276942         1.460766        -0.503751
 O         2.208091        -0.612050        -0.413166
 H        -0.310288        -0.887618         0.673841
 H        -0.800566         0.559816        -0.431341
 H         0.074929        -1.068107        -0.986368
 H         1.616108         0.951715         2.380561
 H         1.467949        -0.846391         1.935236
 H         4.069894         0.892478         1.958258
 H         3.913741        -0.793714         1.534688
 H         4.662222         1.418926        -1.469586
 H         4.203902        -0.090978        -2.117343
 H         2.188936         2.533338         0.000548
