19
Iteration:  2462
 C        -0.161688        -0.145772        -0.068575
 C         1.388759         0.012931         0.127407
 C         2.030542        -0.589351         1.396930
 C         3.565681        -0.303407         1.001882
 C         3.330046         0.457141        -0.229894
 C         3.801526         1.427834        -1.395459
 O         2.469726         1.875586        -1.415696
 C         2.066744         1.433992        -0.033714
 O         2.317887        -0.443129        -0.863098
 H        -0.605348         0.827008        -0.413643
 H        -0.367491        -0.925669        -0.818899
 H        -0.629254        -0.472481         0.861462
 H         1.594763        -0.256008         2.312037
 H         1.932864        -1.642989         1.462912
 H         4.062977         0.099493         1.849881
 H         4.114193        -1.271567         0.765099
 H         4.475660         2.253693        -1.039792
 H         4.116040         0.730935        -2.176546
 H         1.992965         2.325094         0.565452
