19
Iteration:   979charge 0 multiplicity 1
 C        -0.021395        -0.200802        -0.217308
 C         1.415102         0.005911         0.072124
 C         2.036607        -0.572282         1.439358
 C         3.587192        -0.429587         0.951087
 C         3.324194         0.462334        -0.315692
 C         3.677845         1.494359        -1.397728
 O         2.423776         2.161942        -1.265048
 C         2.163273         1.371883         0.110127
 O         2.227157        -0.612794        -0.883653
 H        -0.247230        -1.248585        -0.348008
 H        -0.509007         0.197836         0.701313
 H        -0.254823         0.401318        -1.090520
 H         1.754621         0.070196         2.317297
 H         1.793706        -1.685509         1.682652
 H         4.153643         0.137243         1.684805
 H         3.899739        -1.502036         0.852946
 H         4.534396         2.084723        -1.072410
 H         3.788714         1.126752        -2.440514
 H         2.022226         2.158375         0.881533
