19
Iteration:  2320charge 0 multiplicity 1
 C        -0.136880        -0.083578        -0.096007
 C         1.411074        -0.018115         0.004680
 C         2.119138        -0.491294         1.443805
 C         3.553600        -0.267739         0.975576
 C         3.295793         0.381753        -0.357709
 C         3.741417         1.440142        -1.201592
 O         2.396874         1.966070        -1.299594
 C         2.141688         1.331472        -0.039823
 O         2.294418        -0.629416        -0.935601
 H        -0.247120        -0.584623        -1.089635
 H        -0.765602        -0.366682         0.801356
 H        -0.627260         0.945268        -0.332587
 H         1.854461        -0.099996         2.366920
 H         1.868539        -1.511028         1.520516
 H         4.054375         0.355534         1.632188
 H         4.203770        -1.069374         0.626241
 H         4.439461         2.216750        -0.671042
 H         4.203856         1.296436        -2.193580
 H         1.989948         2.014594         0.845426
