19
Iteration:  1890
 C        -0.191987        -0.121138        -0.052436
 C         1.423941        -0.012113         0.070988
 C         2.064222        -0.592277         1.380738
 C         3.524269        -0.267903         1.108219
 C         3.223661         0.367845        -0.345838
 C         3.804473         1.463428        -1.288094
 O         2.431185         2.110418        -1.320261
 C         2.197052         1.309761        -0.119368
 O         2.332536        -0.589010        -0.980980
 H        -0.302335        -1.144654        -0.506777
 H        -0.666824        -0.299411         0.984825
 H        -0.729322         0.715675        -0.493364
 H         1.863296        -0.123658         2.411530
 H         1.788638        -1.738537         1.356165
 H         3.812010         0.521407         1.774043
 H         4.212757        -1.074038         0.996065
 H         4.524867         2.070832        -0.787777
 H         4.007055         1.124615        -2.319522
 H         2.270231         1.940271         0.837762
