19
Iteration:   320
 C        -0.110400        -0.244164        -0.298398
 C         1.374474         0.016595         0.121973
 C         2.035822        -0.598518         1.386716
 C         3.605443        -0.365910         0.942982
 C         3.261360         0.359315        -0.290074
 C         3.720324         1.475015        -1.429923
 O         2.399668         2.129778        -1.152343
 C         2.218292         1.427254         0.052748
 O         2.277461        -0.489451        -0.830580
 H        -0.503386        -1.129307         0.327300
 H        -0.591147         0.755152        -0.102376
 H        -0.036128        -0.497087        -1.400870
 H         1.692277        -0.176821         2.359931
 H         1.822190        -1.717348         1.395652
 H         4.191024         0.098398         1.713669
 H         4.258480        -1.298302         0.732359
 H         4.615887         2.076012        -1.222887
 H         3.693555         0.939843        -2.363488
 H         2.300939         1.983977         0.956616
