19
Iteration:  2444charge 0 multiplicity 1
 C        -0.107116        -0.133990        -0.013112
 C         1.347460         0.104821         0.085759
 C         2.082008        -0.543139         1.400010
 C         3.558358        -0.334642         1.067517
 C         3.276975         0.419052        -0.254902
 C         3.828555         1.414885        -1.263527
 O         2.377124         1.987509        -1.443075
 C         2.119178         1.348929        -0.122745
 O         2.352855        -0.574521        -0.948073
 H        -0.657314         0.728560        -0.463614
 H        -0.369992        -0.932923        -0.788341
 H        -0.585388        -0.248797         0.941132
 H         1.769914        -0.023042         2.357948
 H         1.551858        -1.565360         1.427422
 H         4.285970         0.175541         1.780590
 H         4.120412        -1.196376         0.906695
 H         4.448244         2.126950        -0.659520
 H         4.064537         1.041315        -2.293859
 H         1.975322         2.078647         0.746289
