19
Iteration:  4360
 C        -0.133961        -0.155146        -0.224499
 C         1.327342         0.131412         0.061334
 C         1.909947         0.245584         1.668022
 C         3.462540         0.339250         1.412015
 C         3.313890         0.342697        -0.147693
 C         3.804659         0.838360        -1.559458
 O         2.628579         1.511471        -1.785265
 C         2.117633         1.269709        -0.421608
 O         2.335453        -0.804684        -0.480871
 H        -0.479782        -0.845982         0.527220
 H        -0.614085         0.897283        -0.110633
 H        -0.317108        -0.525207        -1.227596
 H         1.656333         1.173764         2.170043
 H         1.569385        -0.623187         2.153479
 H         3.945031         1.378584         1.555798
 H         4.047047        -0.519767         1.858901
 H         4.773759         1.536577        -1.720853
 H         3.968905        -0.099692        -2.164925
 H         1.953834         2.252292         0.250259
