19
Iteration:  4669charge 0 multiplicity 1
 C        -0.107548        -0.053375        -0.131743
 C         1.332389         0.167945         0.123671
 C         1.930294         0.143149         1.653470
 C         3.494883         0.258595         1.412559
 C         3.248535         0.365694        -0.174777
 C         3.867260         0.888496        -1.422887
 O         2.559796         1.295405        -1.919957
 C         2.141404         1.413957        -0.489057
 O         2.315958        -0.704383        -0.499730
 H        -0.299832        -1.169060         0.194339
 H        -0.854959         0.524641         0.408798
 H        -0.268669        -0.054759        -1.237333
 H         1.584001         0.965615         2.202411
 H         1.471171        -0.824127         2.000332
 H         4.054528         1.189607         1.758718
 H         4.024966        -0.695813         1.584303
 H         4.513503         1.729663        -1.093894
 H         4.367375         0.271686        -2.176195
 H         2.059318         2.468119        -0.094475
