19
Iteration:  4192
 C        -0.142139        -0.258202        -0.251449
 C         1.367724         0.232276         0.154105
 C         1.867783         0.240783         1.717429
 C         3.433449         0.193287         1.366788
 C         3.287818         0.453471        -0.173162
 C         3.890475         0.747218        -1.567318
 O         2.569288         1.493380        -1.884845
 C         2.179892         1.452538        -0.434938
 O         2.330831        -0.721438        -0.365705
 H        -0.132861        -1.336672         0.058702
 H        -0.997106         0.213579         0.069352
 H        -0.156621        -0.292613        -1.363048
 H         1.646590         1.065679         2.295506
 H         1.561933        -0.664293         2.192967
 H         4.038367         0.898726         1.880793
 H         3.811566        -0.770487         1.706539
 H         4.794363         1.478610        -1.674173
 H         3.882220        -0.087227        -2.277356
 H         2.080909         2.495228        -0.123085
