19
Iteration:  2180charge 0 multiplicity 1
 C        -0.088902        -0.065324        -0.108865
 C         1.397233        -0.018605         0.113379
 C         2.040714        -0.580370         1.323794
 C         3.583447        -0.317511         1.048734
 C         3.274225         0.339512        -0.250063
 C         3.729083         1.489361        -1.310618
 O         2.351622         1.980731        -1.329742
 C         2.189056         1.347955        -0.026289
 O         2.343875        -0.538443        -0.975286
 H        -0.545362        -0.889732         0.472037
 H        -0.417136         0.882170         0.325446
 H        -0.608635        -0.183888        -0.984892
 H         1.590574        -0.060487         2.269769
 H         1.813738        -1.659174         1.516028
 H         4.149142         0.383661         1.755015
 H         4.270235        -1.174961         0.844855
 H         4.396115         2.247605        -0.920519
 H         4.171805         1.109839        -2.228234
 H         2.098813         2.028387         0.836223
