19
Iteration:  1734charge 0 multiplicity 1
 C        -0.093639        -0.178240        -0.034306
 C         1.400733         0.116864         0.088722
 C         2.054692        -0.558475         1.285288
 C         3.588154        -0.396973         0.981314
 C         3.332382         0.431451        -0.266879
 C         3.766968         1.451400        -1.330212
 O         2.359374         1.985735        -1.305408
 C         2.078323         1.356956         0.003917
 O         2.352173        -0.521365        -0.919761
 H        -0.363641        -1.207627        -0.222425
 H        -0.652834         0.275416         0.737854
 H        -0.488503         0.295509        -0.930417
 H         1.736556        -0.057632         2.234827
 H         1.896234        -1.621340         1.283053
 H         3.872745         0.116242         1.854413
 H         4.100142        -1.238369         0.836338
 H         4.491191         2.161958        -0.929814
 H         4.066173         1.152815        -2.310385
 H         1.973592         2.122714         0.806156
