19
Iteration:  3028
 C        -0.174032        -0.249658        -0.060371
 C         1.301390         0.138222         0.164924
 C         2.038030        -0.361958         1.475627
 C         3.510620        -0.128276         1.167246
 C         3.276789         0.424890        -0.210642
 C         3.841467         1.256791        -1.418768
 O         2.533754         1.812187        -1.547509
 C         2.159363         1.423929        -0.174641
 O         2.287535        -0.563413        -0.872719
 H        -0.828982         0.447439         0.430787
 H        -0.303170        -0.325400        -1.126519
 H        -0.262395        -1.164058         0.444155
 H         1.673171         0.136210         2.347696
 H         1.705843        -1.337321         1.443270
 H         3.995953         0.468929         1.874637
 H         3.941367        -1.108232         1.151897
 H         4.636210         1.834121        -0.880171
 H         4.223574         0.781946        -2.300875
 H         2.181344         2.340345         0.502691
