19
Iteration:  3155
 C        -0.124556        -0.116154        -0.001795
 C         1.339465         0.085616         0.112550
 C         1.949262        -0.270911         1.449929
 C         3.502289        -0.085798         1.147769
 C         3.277816         0.369291        -0.223257
 C         3.915827         1.224774        -1.333573
 O         2.462063         1.810855        -1.624706
 C         2.105985         1.383596        -0.292439
 O         2.364398        -0.670542        -0.764231
 H        -0.301446        -1.119419        -0.572545
 H        -0.634621        -0.144833         1.005677
 H        -0.554648         0.723507        -0.636581
 H         1.562766         0.358443         2.340558
 H         1.819819        -1.270948         1.876100
 H         3.930104         0.589430         1.945043
 H         4.055005        -1.103315         1.190901
 H         4.638064         1.902611        -0.992231
 H         4.194729         0.693998        -2.226515
 H         2.022562         2.135723         0.463711
