19
Iteration:  3951
 C        -0.109424        -0.121308        -0.165187
 C         1.341717         0.108060         0.086363
 C         1.885541         0.248936         1.613232
 C         3.462111         0.333557         1.291660
 C         3.293874         0.344045        -0.109035
 C         3.866703         0.885465        -1.415648
 O         2.629794         1.406708        -1.866610
 C         2.139561         1.277717        -0.488220
 O         2.299292        -0.752695        -0.456815
 H        -0.312179        -1.168839         0.106688
 H        -0.733189         0.341923         0.574818
 H        -0.500072         0.124283        -1.141281
 H         1.418511         1.174583         2.016703
 H         1.637806        -0.686773         2.273962
 H         3.771136         1.334152         1.585403
 H         4.045766        -0.415047         1.716609
 H         4.614485         1.606291        -1.163703
 H         4.199848         0.029130        -2.026665
 H         1.986040         2.352795        -0.039965
