19
Iteration:  2255charge 0 multiplicity 1
 C        -0.052926        -0.290575        -0.127948
 C         1.363919         0.136497         0.081366
 C         1.989738        -0.576138         1.355319
 C         3.623009        -0.350045         1.014940
 C         3.342326         0.417284        -0.242259
 C         3.707648         1.256090        -1.423393
 O         2.455304         2.089816        -1.259404
 C         2.150598         1.456123         0.030809
 O         2.248841        -0.380558        -0.915332
 H        -0.006963        -1.451245        -0.227837
 H        -0.986308        -0.092875         0.517348
 H        -0.379032        -0.087108        -1.275359
 H         1.791967        -0.091443         2.364459
 H         1.678918        -1.626925         1.410718
 H         4.071567         0.044097         1.883524
 H         4.108045        -1.349117         1.015786
 H         4.609888         1.906272        -1.201373
 H         3.821238         0.744739        -2.386560
 H         2.079187         2.186464         0.923206
