19
Iteration:  1949
 C        -0.051667        -0.247713        -0.247254
 C         1.387648         0.017843         0.198564
 C         2.016668        -0.534247         1.458500
 C         3.568097        -0.383549         0.942427
 C         3.302307         0.380182        -0.294798
 C         3.726428         1.420436        -1.401784
 O         2.443399         2.083446        -1.295432
 C         2.170276         1.431258         0.023465
 O         2.238447        -0.454785        -0.832679
 H        -0.188241        -1.315223        -0.105092
 H        -0.746312         0.279941         0.358922
 H        -0.133967        -0.170817        -1.330273
 H         1.747956        -0.031503         2.419867
 H         1.680921        -1.567426         1.556816
 H         4.346460         0.045791         1.636390
 H         4.008835        -1.436598         0.675289
 H         4.633377         2.073423        -1.171410
 H         3.929055         1.011940        -2.408252
 H         1.918657         2.155909         0.767319
