19
Iteration:   622
 C         0.003093        -0.179616        -0.150500
 C         1.385433         0.118914         0.123884
 C         2.056711        -0.631553         1.289904
 C         3.576868        -0.413746         0.988611
 C         3.228438         0.510556        -0.234157
 C         3.737812         1.390096        -1.338973
 O         2.339630         2.010223        -1.362562
 C         2.157275         1.456370         0.069930
 O         2.319091        -0.477140        -0.855365
 H        -0.138294        -1.296405        -0.325423
 H        -0.582950        -0.005345         0.826640
 H        -0.422848         0.309638        -1.083719
 H         1.807029        -0.439841         2.365331
 H         1.661436        -1.713929         1.104987
 H         4.234953         0.025357         1.799325
 H         4.032681        -1.364409         0.664099
 H         4.536925         2.086901        -1.029154
 H         3.956497         0.878260        -2.306528
 H         2.170075         2.094642         0.980562
