19
Iteration:  4714charge 0 multiplicity 1
 C        -0.086771        -0.083882        -0.153795
 C         1.359535         0.045896         0.123882
 C         1.876949         0.200782         1.656287
 C         3.460059         0.332597         1.393357
 C         3.286663         0.327950        -0.174413
 C         3.853154         0.806332        -1.509146
 O         2.575316         1.566918        -1.804897
 C         2.131506         1.257036        -0.461095
 O         2.365901        -0.797267        -0.537309
 H        -0.740823        -0.440088         0.717860
 H        -0.489009         0.937634        -0.361127
 H        -0.378742        -0.629301        -1.044640
 H         1.584460         1.146678         2.009205
 H         1.663381        -0.605061         2.356423
 H         3.733198         1.328931         1.790406
 H         3.923638        -0.561887         1.842752
 H         4.619966         1.583207        -1.526188
 H         4.057735         0.082453        -2.288898
 H         1.949732         2.275586        -0.032863
