19
Iteration:  3724
 C        -0.088697        -0.092845        -0.126617
 C         1.380001         0.078999         0.060934
 C         1.880097         0.117809         1.578145
 C         3.454316         0.257746         1.271039
 C         3.234462         0.344131        -0.195834
 C         3.903528         0.969513        -1.437775
 O         2.591875         1.532765        -1.794313
 C         2.075126         1.294467        -0.410423
 O         2.345235        -0.802903        -0.467009
 H        -0.433409         0.131403        -1.170822
 H        -0.619703        -0.977312         0.215074
 H        -0.647781         0.686787         0.393662
 H         1.425144         0.938773         2.125325
 H         1.682556        -0.767147         2.048379
 H         3.924411         1.162387         1.691188
 H         4.041954        -0.578991         1.652076
 H         4.750726         1.790984        -1.264782
 H         4.154932         0.173220        -2.088246
 H         2.213504         2.199306         0.193098
