19
Iteration:   720
 C        -0.115567        -0.298847        -0.164004
 C         1.322258         0.097735         0.111767
 C         2.105182        -0.512251         1.344113
 C         3.609930        -0.412328         1.005103
 C         3.307194         0.473408        -0.207822
 C         3.701463         1.279127        -1.360885
 O         2.442585         1.976974        -1.241301
 C         2.114355         1.419067         0.148319
 O         2.325607        -0.341347        -1.051218
 H        -0.265952        -1.211546        -0.815925
 H        -0.823956        -0.502896         0.744465
 H        -0.562074         0.556727        -0.773925
 H         2.040345         0.168575         2.181029
 H         1.771980        -1.559136         1.665157
 H         4.106793         0.114628         1.818965
 H         4.133409        -1.300864         0.607147
 H         4.416609         2.035667        -1.192295
 H         3.798999         0.883180        -2.385019
 H         2.102974         2.206917         0.806591
