19
Iteration:  4312charge 0 multiplicity 1
 C        -0.073138        -0.284319        -0.159395
 C         1.328535         0.291513         0.156965
 C         1.920204         0.246572         1.644124
 C         3.403924         0.234675         1.431590
 C         3.288195         0.387808        -0.145984
 C         3.912896         0.748177        -1.518309
 O         2.584898         1.416956        -1.857746
 C         2.155608         1.406861        -0.493814
 O         2.253182        -0.625991        -0.510119
 H         0.203404        -1.344511        -0.373882
 H        -0.776735        -0.171474         0.624362
 H        -0.468760         0.194974        -1.086318
 H         1.586208         1.067412         2.264818
 H         1.553465        -0.712634         2.073332
 H         3.909427         1.033082         1.934035
 H         3.897105        -0.712911         1.717969
 H         4.738858         1.386047        -1.485893
 H         4.104128        -0.078388        -2.159797
 H         2.156674         2.395465        -0.116238
