19
Iteration:   637
 C        -0.129034        -0.171834        -0.096231
 C         1.417447         0.029993         0.085421
 C         2.036681        -0.679855         1.385353
 C         3.588739        -0.344128         1.023807
 C         3.341638         0.454811        -0.233122
 C         3.736321         1.354130        -1.308983
 O         2.370870         1.990371        -1.291073
 C         2.136040         1.395097        -0.000429
 O         2.309662        -0.381340        -1.018123
 H        -0.181865        -1.088384        -0.603909
 H        -0.598539        -0.134192         0.845345
 H        -0.471157         0.614787        -0.704243
 H         1.629762        -0.172735         2.256461
 H         1.902655        -1.754251         1.528486
 H         4.056545         0.225428         1.792591
 H         4.279300        -1.221045         0.818389
 H         4.458153         2.260805        -1.175823
 H         3.943079         0.838870        -2.247300
 H         2.103437         2.335843         0.658475
