19
Iteration:  3604charge 0 multiplicity 1
 C        -0.090003        -0.170327        -0.198814
 C         1.337197         0.038445         0.111365
 C         1.922730         0.161614         1.596285
 C         3.486810         0.190208         1.292828
 C         3.298971         0.338953        -0.231275
 C         3.865063         0.879757        -1.468610
 O         2.562306         1.683172        -1.687542
 C         2.113582         1.328138        -0.331277
 O         2.302883        -0.775184        -0.598951
 H        -0.664695        -0.359974         0.716072
 H        -0.547037         0.723190        -0.596064
 H        -0.379372        -1.048033        -0.788422
 H         1.444501         1.021488         2.265318
 H         1.771026        -0.744815         2.111248
 H         4.111015         1.061629         1.638863
 H         4.077405        -0.656313         1.723477
 H         4.524988         1.721873        -1.261010
 H         4.186119         0.245229        -2.193370
 H         1.971837         2.387035         0.208598
