19
Iteration:  2999charge 0 multiplicity 1
 C        -0.119497        -0.142973        -0.027757
 C         1.357707         0.086065         0.106022
 C         2.027702        -0.468983         1.424697
 C         3.529073        -0.155908         1.162312
 C         3.287517         0.482510        -0.184772
 C         3.855562         1.224219        -1.385090
 O         2.484495         1.873124        -1.590055
 C         2.081798         1.424858        -0.170007
 O         2.298714        -0.585327        -0.815294
 H        -0.598409         0.822389        -0.292973
 H        -0.406413        -0.926485        -0.858711
 H        -0.441507        -0.614328         0.964332
 H         1.695521         0.052618         2.318342
 H         1.661437        -1.567126         1.279660
 H         3.820556         0.602956         1.974551
 H         4.226839        -0.985921         1.236089
 H         4.663137         1.814043        -0.976627
 H         4.205286         0.611472        -2.250270
 H         1.951661         2.290227         0.471112
