19
Iteration:  4055
 C        -0.015393        -0.246815        -0.265069
 C         1.336326         0.187753         0.126015
 C         1.930556         0.366664         1.608785
 C         3.448429         0.320333         1.317377
 C         3.297016         0.242694        -0.141901
 C         3.852165         0.805576        -1.550435
 O         2.530361         1.603555        -1.822863
 C         2.147524         1.253441        -0.463217
 O         2.298022        -0.799411        -0.331264
 H        -0.171799        -1.327314        -0.250342
 H        -0.739352         0.308551         0.477703
 H        -0.285040         0.108613        -1.301898
 H         1.497822         1.367000         2.009608
 H         1.524569        -0.476521         2.193057
 H         4.056328         1.101393         1.845947
 H         3.594244        -0.640889         1.903299
 H         4.689409         1.465480        -1.355712
 H         4.175782        -0.013673        -2.192897
 H         1.996020         2.166361         0.050540
