19
Iteration:   709
 C        -0.191789        -0.302397        -0.239950
 C         1.372419         0.057021         0.073604
 C         2.117909        -0.507853         1.456323
 C         3.656150        -0.367264         1.008711
 C         3.321911         0.410943        -0.193232
 C         3.738476         1.378272        -1.369649
 O         2.445320         2.076634        -1.213146
 C         2.170218         1.393932         0.009668
 O         2.187179        -0.421671        -1.008522
 H        -0.105479        -1.164737        -0.948043
 H        -0.588182        -0.567292         0.796574
 H        -0.744703         0.593365        -0.657386
 H         1.936540         0.043041         2.376026
 H         1.828479        -1.585078         1.687680
 H         4.316009         0.111548         1.742886
 H         4.126150        -1.345823         0.788730
 H         4.567434         1.991641        -1.226609
 H         3.823178         0.833264        -2.326380
 H         2.039649         1.974881         0.860453
