19
Iteration:  1676charge 0 multiplicity 1
 C        -0.065125        -0.265183        -0.267422
 C         1.316309         0.121192         0.043905
 C         2.089875        -0.487314         1.492008
 C         3.645080        -0.267822         0.956682
 C         3.307848         0.340037        -0.358308
 C         3.647618         1.386640        -1.364222
 O         2.465819         2.122299        -1.183819
 C         2.191183         1.384274         0.023020
 O         2.193536        -0.593076        -0.863294
 H        -0.075288        -1.315772        -0.569650
 H        -0.671202        -0.250480         0.689225
 H        -0.453397         0.450473        -1.049906
 H         1.636387        -0.098568         2.358221
 H         1.948170        -1.563879         1.588477
 H         4.314635         0.219412         1.630466
 H         4.183546        -1.201702         0.698154
 H         4.478206         1.932156        -1.007686
 H         3.691374         1.103178        -2.436663
 H         2.346039         1.828407         1.041834
