19
Iteration:   250
 C        -0.157601        -0.194124        -0.066735
 C         1.372175         0.005915         0.039883
 C         2.113090        -0.652661         1.384547
 C         3.626923        -0.385834         0.965473
 C         3.286631         0.379334        -0.364386
 C         3.808116         1.570549        -1.159683
 O         2.410679         2.167315        -1.228501
 C         2.095552         1.318784        -0.102310
 O         2.226903        -0.566497        -1.009713
 H        -0.495846         0.640307         0.458436
 H        -0.257375         0.024102        -1.102773
 H        -0.504923        -1.138568         0.261417
 H         1.792836        -0.326058         2.388599
 H         1.850077        -1.684540         1.296578
 H         4.337894         0.255526         1.519896
 H         4.133835        -1.272071         0.864423
 H         4.400967         2.044705        -0.442461
 H         4.159945         1.522399        -2.178494
 H         2.182504         1.925030         0.871109
