19
Iteration:   624
 C         0.001315        -0.176731        -0.138063
 C         1.386335         0.114797         0.114237
 C         2.041975        -0.652121         1.304356
 C         3.581796        -0.395921         0.990122
 C         3.236436         0.492075        -0.204933
 C         3.740366         1.385940        -1.336688
 O         2.329479         2.009898        -1.368838
 C         2.162540         1.464064         0.057753
 O         2.321206        -0.466575        -0.878888
 H        -0.149845        -1.224339        -0.344201
 H        -0.595589        -0.052902         0.768450
 H        -0.446192         0.326498        -0.985130
 H         1.809213        -0.367259         2.326768
 H         1.702077        -1.749160         1.138179
 H         4.206808         0.074821         1.745881
 H         4.040333        -1.372250         0.630925
 H         4.590050         2.138765        -1.047805
 H         3.967507         0.828698        -2.253303
 H         2.197506         2.034871         1.035582
