19
Iteration:  3126charge 0 multiplicity 1
 C        -0.145170        -0.113446        -0.150939
 C         1.333069         0.136139         0.117422
 C         1.984308        -0.425373         1.519126
 C         3.585436        -0.076092         1.235883
 C         3.299479         0.436587        -0.170156
 C         3.840672         1.148463        -1.456770
 O         2.455344         1.747838        -1.577371
 C         2.140906         1.440853        -0.201982
 O         2.285892        -0.564442        -0.789087
 H        -0.260452        -1.128515         0.099897
 H        -0.727867         0.580527         0.412151
 H        -0.244425         0.011682        -1.182000
 H         1.668646         0.151780         2.439554
 H         1.904530        -1.463431         1.688764
 H         3.872049         0.625733         1.996117
 H         4.271523        -0.919121         1.238507
 H         4.695863         1.898301        -1.229600
 H         4.006687         0.571971        -2.353497
 H         2.033351         2.268162         0.529376
