19
Iteration:  3942
 C        -0.076623        -0.160754        -0.151250
 C         1.321619         0.090659         0.067271
 C         1.902677         0.304999         1.595455
 C         3.436071         0.343787         1.355158
 C         3.301587         0.332873        -0.203040
 C         3.910814         0.815950        -1.412186
 O         2.559511         1.484998        -1.880769
 C         2.165687         1.279121        -0.411563
 O         2.280241        -0.780796        -0.445570
 H        -0.377073        -1.235291         0.090385
 H        -0.668949         0.589716         0.354800
 H        -0.167146        -0.126373        -1.260211
 H         1.389654         1.293023         1.964150
 H         1.488835        -0.489236         2.250485
 H         3.945426         1.231831         1.663606
 H         3.968237        -0.491684         1.751897
 H         4.617762         1.584146        -1.250011
 H         4.315780         0.183063        -2.113196
 H         2.059542         2.188821         0.178991
