19
Iteration:   972charge 0 multiplicity 1
 C         0.019344        -0.177186        -0.228894
 C         1.418027         0.042482         0.184054
 C         2.033126        -0.578621         1.381018
 C         3.566884        -0.404971         0.974022
 C         3.309883         0.394073        -0.286318
 C         3.690261         1.449490        -1.380931
 O         2.405589         2.177119        -1.307248
 C         2.097410         1.360728         0.096122
 O         2.245424        -0.567721        -0.875939
 H        -0.079983        -1.250710        -0.427799
 H        -0.659729        -0.051904         0.628710
 H        -0.340282         0.389361        -1.079708
 H         1.781886        -0.095935         2.292580
 H         1.855618        -1.668053         1.582970
 H         4.250572         0.011219         1.710957
 H         4.003437        -1.304643         0.509294
 H         4.608483         2.032241        -1.192503
 H         3.788136         1.101263        -2.409857
 H         2.297166         2.167103         0.944768
