19
Iteration:   751charge 0 multiplicity 1
 C        -0.041791        -0.189368        -0.105176
 C         1.359228         0.084163         0.098322
 C         2.069331        -0.635375         1.401830
 C         3.564539        -0.427391         1.044410
 C         3.331754         0.480815        -0.279008
 C         3.701214         1.497685        -1.356014
 O         2.420613         2.110637        -1.322765
 C         2.146507         1.386884        -0.019513
 O         2.266121        -0.598951        -0.937157
 H        -0.316720        -1.270175        -0.174521
 H        -0.733096         0.275005         0.657154
 H        -0.456571         0.336963        -1.019583
 H         1.789956        -0.352778         2.417027
 H         1.746342        -1.685208         1.254725
 H         4.197314        -0.087422         1.885856
 H         4.104487        -1.300166         0.697433
 H         4.432812         2.275968        -0.810217
 H         4.056669         1.196832        -2.423704
 H         2.166572         2.164255         0.747796
