19
Iteration:   372charge 0 multiplicity 1
 C        -0.149479        -0.189622        -0.039208
 C         1.389362        -0.027325         0.021313
 C         2.043754        -0.551887         1.409412
 C         3.577375        -0.292300         1.018287
 C         3.309647         0.436279        -0.254761
 C         3.782246         1.453149        -1.256159
 O         2.408535         1.994677        -1.303607
 C         2.108634         1.304145         0.018109
 O         2.331087        -0.447296        -1.104557
 H        -0.333595        -1.103192        -0.624202
 H        -0.640403        -0.229480         0.931012
 H        -0.486191         0.703017        -0.599370
 H         1.739967        -0.006775         2.333409
 H         1.834220        -1.636120         1.475081
 H         4.111728         0.261422         1.903327
 H         3.917252        -1.301162         0.683447
 H         4.583621         2.083753        -0.861592
 H         4.159544         1.026515        -2.203891
 H         2.087208         1.962952         0.973215
