19
Iteration:  3741charge 0 multiplicity 1
 C        -0.178188        -0.144338        -0.178306
 C         1.321048         0.136266         0.151885
 C         1.919452         0.167501         1.582720
 C         3.458691         0.267877         1.364108
 C         3.324971         0.377537        -0.132498
 C         3.850592         0.810302        -1.505111
 O         2.588813         1.561484        -1.772438
 C         2.139417         1.384678        -0.399348
 O         2.373081        -0.782959        -0.588718
 H        -0.368716         0.349789        -1.120090
 H        -0.210496        -1.270896        -0.209961
 H        -0.848246         0.123623         0.667350
 H         1.610366         1.023563         2.210865
 H         1.618537        -0.836826         2.183979
 H         3.882296         1.158007         1.830203
 H         3.983580        -0.656888         1.620565
 H         4.626591         1.467592        -1.303323
 H         4.127924        -0.043900        -2.227807
 H         1.711067         2.315384         0.012187
