19
Iteration:  1777
 C        -0.151222        -0.170659        -0.110876
 C         1.311199        -0.058626         0.081344
 C         2.195509        -0.540363         1.364970
 C         3.612617        -0.232239         1.026152
 C         3.264548         0.362313        -0.363098
 C         3.792143         1.427801        -1.298198
 O         2.481422         2.091423        -1.181056
 C         2.082982         1.275790        -0.016766
 O         2.223916        -0.529041        -1.000938
 H        -0.480947        -1.210985         0.149442
 H        -0.729265         0.628610         0.306448
 H        -0.376423        -0.196725        -1.216356
 H         2.001464         0.039981         2.252520
 H         1.850910        -1.538172         1.467202
 H         4.023204         0.592114         1.538406
 H         4.221370        -1.039594         1.001001
 H         4.568933         2.029431        -0.903509
 H         4.030716         1.133925        -2.285213
 H         1.856638         1.899571         0.892410
