19
Iteration:  1494
 C        -0.161817        -0.289246        -0.092489
 C         1.337218         0.011892         0.187437
 C         2.065361        -0.654711         1.299326
 C         3.626560        -0.319482         0.997868
 C         3.259904         0.512836        -0.230839
 C         3.823230         1.347007        -1.320836
 O         2.452613         2.011525        -1.365433
 C         2.139407         1.443062         0.036900
 O         2.208587        -0.345771        -0.948626
 H        -0.095526        -1.270874        -0.578689
 H        -0.793715        -0.237970         0.775963
 H        -0.301812         0.447841        -0.905163
 H         1.921100        -0.233728         2.250955
 H         1.911604        -1.697702         1.311356
 H         4.298324         0.157482         1.804683
 H         4.027925        -1.278451         0.691760
 H         4.651080         2.004802        -0.983712
 H         4.068477         0.726354        -2.153932
 H         2.193228         2.230375         0.775626
