19
Iteration:  2679charge 0 multiplicity 1
 C        -0.064638        -0.244093        -0.200114
 C         1.329819         0.075474         0.148016
 C         2.065024        -0.506374         1.441194
 C         3.595496        -0.378558         1.026179
 C         3.287334         0.460063        -0.244451
 C         3.702313         1.295987        -1.437341
 O         2.473801         2.047241        -1.305357
 C         2.109746         1.400955         0.029134
 O         2.269873        -0.463922        -0.865565
 H        -0.183218         0.053833        -1.272278
 H        -0.028218        -1.346885        -0.426829
 H        -0.822968         0.181129         0.441030
 H         2.008447         0.095258         2.406635
 H         1.568904        -1.458389         1.550700
 H         4.278270         0.137622         1.722957
 H         4.235179        -1.222728         0.578871
 H         4.553776         2.117146        -1.263300
 H         3.782184         0.800300        -2.425157
 H         1.950965         2.178596         0.771537
