19
Iteration:  1524
 C        -0.056143        -0.280831        -0.160158
 C         1.334464         0.047928         0.077315
 C         2.005153        -0.523036         1.382444
 C         3.593771        -0.352700         1.022074
 C         3.301232         0.331725        -0.378213
 C         3.632026         1.416408        -1.374357
 O         2.503757         2.195302        -1.219389
 C         2.179676         1.404834         0.073142
 O         2.277048        -0.539277        -0.926917
 H         0.037144        -1.246154        -0.570471
 H        -0.683303        -0.300703         0.719698
 H        -0.516293         0.295348        -0.930923
 H         2.044011         0.078711         2.332620
 H         1.624827        -1.570975         1.629832
 H         4.082111         0.375091         1.550633
 H         4.110017        -1.260446         1.097404
 H         4.665787         1.840396        -1.337605
 H         3.629708         0.825338        -2.342236
 H         2.175981         2.049708         0.978818
