19
Iteration:   319charge 0 multiplicity 1
 C        -0.107532        -0.246751        -0.294344
 C         1.377234         0.015639         0.120169
 C         2.034465        -0.606953         1.383444
 C         3.606440        -0.372813         0.945399
 C         3.266356         0.362814        -0.290768
 C         3.721863         1.471367        -1.434661
 O         2.400885         2.127764        -1.153606
 C         2.213934         1.431946         0.058057
 O         2.275121        -0.481759        -0.832297
 H        -0.522535        -1.117280         0.315458
 H        -0.592685         0.746649        -0.126952
 H        -0.026611        -0.512909        -1.391186
 H         1.722679        -0.158198         2.367562
 H         1.797890        -1.701430         1.404230
 H         4.178904         0.095837         1.738512
 H         4.253867        -1.275897         0.762251
 H         4.597171         2.061469        -1.233288
 H         3.677207         0.954110        -2.380457
 H         2.286925         2.022886         0.971927
