19
Iteration:  4366charge 0 multiplicity 1
 C        -0.100831        -0.109786        -0.212692
 C         1.375380         0.089723         0.078525
 C         1.883872         0.253478         1.695073
 C         3.472982         0.355110         1.346536
 C         3.316640         0.330201        -0.168656
 C         3.852610         0.856074        -1.521682
 O         2.586732         1.489983        -1.781817
 C         2.116894         1.306123        -0.382354
 O         2.316929        -0.840130        -0.510801
 H        -0.673092        -0.702068         0.558024
 H        -0.604136         0.818307        -0.217722
 H        -0.325501        -0.607135        -1.178546
 H         1.521574         1.219561         2.127293
 H         1.586617        -0.692281         2.274067
 H         3.821501         1.317129         1.560480
 H         4.014720        -0.458907         1.801716
 H         4.689603         1.466193        -1.462188
 H         4.072293         0.069852        -2.226827
 H         1.981755         2.274863        -0.079942
