19
Iteration:  2121
 C        -0.078737        -0.213710        -0.160461
 C         1.384293         0.052596         0.136906
 C         2.078946        -0.501737         1.422610
 C         3.539168        -0.305581         1.060656
 C         3.256813         0.378465        -0.313583
 C         3.743789         1.277217        -1.425377
 O         2.439632         2.091810        -1.250092
 C         2.192760         1.359946         0.033190
 O         2.276305        -0.476097        -0.966370
 H        -0.009378        -1.271853        -0.470451
 H        -0.781056        -0.420940         0.701347
 H        -0.510065         0.520584        -0.931756
 H         1.854135         0.132044         2.256583
 H         1.795393        -1.530338         1.529502
 H         4.004519         0.361945         1.692969
 H         4.118161        -1.186196         0.862473
 H         4.418524         2.045910        -1.133024
 H         3.854750         0.910672        -2.429022
 H         1.943076         2.130203         0.831803
