19
Iteration:  3527charge 0 multiplicity 1
 C        -0.150902        -0.189452        -0.137503
 C         1.326601         0.102982         0.126471
 C         1.914810         0.008977         1.617464
 C         3.472444         0.136911         1.311815
 C         3.329463         0.367660        -0.238667
 C         3.929863         0.909237        -1.465799
 O         2.505259         1.674803        -1.753203
 C         2.126902         1.389479        -0.313510
 O         2.367217        -0.686058        -0.598991
 H        -0.582959         0.741753        -0.517649
 H        -0.301445        -0.874037        -0.979099
 H        -0.828469        -0.483549         0.607037
 H         1.393876         0.845250         2.280558
 H         1.783243        -0.991288         2.046778
 H         4.103714         0.895651         1.802186
 H         3.926070        -0.867637         1.382956
 H         4.727476         1.647526        -1.344559
 H         4.047818         0.305594        -2.273998
 H         1.934067         2.338631         0.317067
