19
Iteration:  1782
 C        -0.149366        -0.225280        -0.139392
 C         1.351638        -0.037762         0.069806
 C         2.153798        -0.517576         1.304881
 C         3.620594        -0.227012         1.009387
 C         3.262028         0.321279        -0.316397
 C         3.737436         1.376340        -1.302459
 O         2.483372         2.094915        -1.172146
 C         2.078684         1.341534        -0.002791
 O         2.245371        -0.500075        -0.963223
 H        -0.615433        -1.169136         0.134852
 H        -0.665209         0.666367         0.300913
 H        -0.504194        -0.238135        -1.158972
 H         1.958173         0.110350         2.248500
 H         2.014487        -1.657033         1.503030
 H         4.147630         0.575231         1.616784
 H         4.250965        -1.228064         0.929079
 H         4.566502         2.089849        -0.957188
 H         3.994670         1.133363        -2.385593
 H         2.078602         1.927338         0.951683
