19
Iteration:  4948
 C        -0.163266        -0.116097        -0.052673
 C         1.343536         0.137931         0.159431
 C         1.865836         0.104247         1.643695
 C         3.410191         0.294926         1.319493
 C         3.256179         0.387955        -0.277198
 C         4.006344         0.892061        -1.477125
 O         2.633741         1.479124        -1.931345
 C         2.063891         1.301085        -0.431139
 O         2.319424        -0.728188        -0.459462
 H        -0.573583        -0.671754         0.867393
 H        -0.784290         0.791619        -0.188338
 H        -0.152570        -0.830305        -0.934931
 H         1.558941         0.740765         2.434341
 H         1.840454        -0.904609         2.052855
 H         3.897344         1.255354         1.693902
 H         3.956036        -0.621537         1.644200
 H         4.801613         1.692705        -1.123660
 H         4.414141         0.224605        -2.272280
 H         1.948184         2.363311        -0.051192
