19
Iteration:  1327charge 0 multiplicity 1
 C        -0.179022        -0.128097        -0.030889
 C         1.306311        -0.059993         0.056471
 C         2.084040        -0.597031         1.363974
 C         3.640166        -0.324258         0.982448
 C         3.265202         0.361463        -0.350739
 C         3.749568         1.567264        -1.197281
 O         2.512848         2.186939        -1.319375
 C         2.094823         1.298000        -0.067629
 O         2.289087        -0.638622        -0.989464
 H        -0.363632        -1.046304        -0.580660
 H        -0.699449        -0.283137         0.936110
 H        -0.542910         0.692918        -0.652688
 H         1.910759        -0.054571         2.336354
 H         1.842806        -1.715531         1.578735
 H         4.135695         0.374083         1.684010
 H         4.048913        -1.393053         0.958544
 H         4.391307         2.182925        -0.553364
 H         4.215474         1.163089        -2.169288
 H         2.242268         2.005482         0.810220
