19
Iteration:  4753charge 0 multiplicity 1
 C        -0.076092        -0.323123        -0.174506
 C         1.300597         0.268361         0.231248
 C         1.846276         0.144115         1.657003
 C         3.433380         0.196625         1.356267
 C         3.301529         0.415649        -0.154375
 C         3.871284         0.778893        -1.569632
 O         2.605546         1.481607        -1.890653
 C         2.263971         1.479145        -0.503313
 O         2.201270        -0.602985        -0.419647
 H        -0.353910        -0.970481         0.646074
 H        -0.726109         0.483475        -0.430882
 H         0.082812        -1.031180        -1.030445
 H         1.587463         0.998929         2.418474
 H         1.472256        -0.931334         1.900155
 H         4.046085         0.962821         1.894388
 H         3.954902        -0.770493         1.476070
 H         4.807969         1.426174        -1.426041
 H         4.272345        -0.109773        -2.122971
 H         2.199956         2.460958         0.017556
