19
Iteration:  3174
 C        -0.167898        -0.200518        -0.057527
 C         1.373033         0.048359         0.058099
 C         1.962177        -0.112076         1.507429
 C         3.507816        -0.099151         1.178161
 C         3.271792         0.365361        -0.277653
 C         3.824500         1.226157        -1.385480
 O         2.555426         1.810106        -1.553667
 C         2.130884         1.340802        -0.176376
 O         2.303897        -0.701230        -0.818285
 H        -0.265634        -0.861361        -0.937906
 H        -0.368810        -0.669751         0.917611
 H        -0.622822         0.829955        -0.157787
 H         1.719077         0.713034         2.114289
 H         1.515657        -1.062942         2.021714
 H         4.124992         0.708307         1.597950
 H         4.016599        -1.039947         1.344250
 H         4.522531         2.020580        -0.895536
 H         4.346331         0.687530        -2.280198
 H         1.982837         2.194747         0.549417
