19
Iteration:  1471
 C        -0.098466        -0.142499        -0.046551
 C         1.344441         0.094576        -0.001092
 C         2.090028        -0.711586         1.411570
 C         3.573973        -0.405135         1.015000
 C         3.269444         0.416162        -0.282259
 C         3.784321         1.472374        -1.308333
 O         2.440901         2.011367        -1.365279
 C         2.034691         1.432509        -0.051563
 O         2.317237        -0.471509        -0.901003
 H        -0.239499        -1.202550        -0.159257
 H        -0.436525         0.149823         0.928669
 H        -0.553452         0.412662        -0.876503
 H         2.083649        -0.439494         2.430378
 H         1.812941        -1.743437         1.239885
 H         4.122223         0.149893         1.826424
 H         4.140592        -1.275517         0.735777
 H         4.393353         2.216130        -0.723654
 H         4.223225         1.210205        -2.267545
 H         1.884932         2.117086         0.771644
