19
Iteration:  4302charge 0 multiplicity 1
 C        -0.181000        -0.272122        -0.159639
 C         1.291444         0.243347         0.151674
 C         1.896318         0.262224         1.607209
 C         3.483678         0.252110         1.411909
 C         3.355343         0.365081        -0.161160
 C         3.920909         0.774802        -1.473848
 O         2.584344         1.363832        -1.864817
 C         2.180091         1.455061        -0.448723
 O         2.285372        -0.654546        -0.530155
 H        -0.184584        -1.352949        -0.462057
 H        -0.835890        -0.211817         0.689693
 H        -0.615895         0.320551        -0.992374
 H         1.615911         1.115118         2.187840
 H         1.540477        -0.580828         2.157965
 H         4.088138         1.043529         1.770829
 H         3.830710        -0.730525         1.855582
 H         4.606967         1.634145        -1.268313
 H         4.307650         0.072126        -2.190335
 H         1.922276         2.457753        -0.072059
