19
Iteration:  4607
 C        -0.067648        -0.229757        -0.109197
 C         1.401671         0.170612         0.063244
 C         1.859053         0.346020         1.591758
 C         3.384992         0.321478         1.333599
 C         3.286821         0.270317        -0.194959
 C         3.870491         0.777338        -1.581127
 O         2.619737         1.616981        -1.780288
 C         2.193974         1.280993        -0.454368
 O         2.260695        -0.806673        -0.396239
 H         0.040793        -1.206808        -0.524203
 H        -0.614119        -0.298088         0.834823
 H        -0.571762         0.339104        -0.844686
 H         1.546466         1.254279         2.174539
 H         1.472908        -0.466710         2.180334
 H         3.900519         1.170289         1.730501
 H         3.847527        -0.526101         1.852277
 H         4.810223         1.358509        -1.605452
 H         3.858280        -0.002257        -2.328132
 H         2.022545         2.251324         0.057582
