19
Iteration:  2621charge 0 multiplicity 1
 C        -0.135050        -0.158846        -0.105130
 C         1.377477        -0.051262         0.036014
 C         2.099546        -0.526499         1.393952
 C         3.586059        -0.231657         1.071761
 C         3.260946         0.356009        -0.309466
 C         3.753161         1.373797        -1.335315
 O         2.416145         2.049693        -1.285730
 C         2.104500         1.358694         0.005539
 O         2.350709        -0.545207        -0.949628
 H        -0.439622        -0.409362        -1.109617
 H        -0.678160        -0.645879         0.676117
 H        -0.662933         0.887641         0.012198
 H         1.732239        -0.026670         2.251865
 H         1.816178        -1.579100         1.439407
 H         4.191565         0.479447         1.579352
 H         4.117856        -1.139168         0.812489
 H         4.700693         2.097488        -1.054334
 H         3.937974         0.965379        -2.382230
 H         2.002862         1.957451         0.944469
