19
Iteration:  3612
 C        -0.121937        -0.235188        -0.164581
 C         1.359234         0.141072         0.114232
 C         1.890205         0.188834         1.605855
 C         3.491664         0.183253         1.246643
 C         3.294688         0.277720        -0.171573
 C         3.825251         0.908157        -1.459559
 O         2.548217         1.688561        -1.641079
 C         2.153470         1.332382        -0.421389
 O         2.332585        -0.776791        -0.599592
 H        -0.731717        -0.500706         0.724942
 H        -0.467324         0.756606        -0.528558
 H        -0.068685        -0.889515        -1.000962
 H         1.499918         0.983228         2.084756
 H         1.566257        -0.751008         2.142273
 H         3.945266         1.084418         1.553994
 H         4.072130        -0.612987         1.622595
 H         4.694235         1.623494        -1.357090
 H         4.052295         0.158492        -2.257424
 H         2.183357         2.088402         0.361566
