19
Iteration:  1022
 C        -0.120428        -0.194417        -0.066155
 C         1.427879        -0.048590         0.028531
 C         2.065770        -0.609912         1.345222
 C         3.589511        -0.308481         0.972579
 C         3.218063         0.385080        -0.284732
 C         3.787983         1.417612        -1.281446
 O         2.470976         2.068475        -1.215949
 C         2.109595         1.405068         0.020098
 O         2.253335        -0.481702        -1.019371
 H        -0.608336        -1.080201         0.380203
 H        -0.612723         0.685008         0.447836
 H        -0.386700        -0.178824        -1.137322
 H         1.754992        -0.199199         2.326680
 H         1.817508        -1.732850         1.363665
 H         4.004552         0.485503         1.600066
 H         4.331520        -1.114450         0.683176
 H         4.498053         2.186141        -0.819925
 H         4.173740         1.049065        -2.288373
 H         2.043201         2.061192         0.890222
