19
Iteration:  1261
 C         0.026098        -0.269316        -0.268105
 C         1.400072         0.052524         0.165593
 C         2.048737        -0.627075         1.394950
 C         3.522781        -0.425810         0.977925
 C         3.261151         0.487961        -0.286312
 C         3.692409         1.416673        -1.483494
 O         2.445266         2.132290        -1.215738
 C         2.146825         1.392003         0.082615
 O         2.283998        -0.448448        -0.829377
 H        -0.402294        -1.270846        -0.283935
 H        -0.576071         0.278352         0.513237
 H        -0.263342         0.284441        -1.159335
 H         1.560544        -0.280688         2.279031
 H         1.860453        -1.740046         1.323615
 H         4.231218         0.175497         1.584579
 H         3.912539        -1.523846         0.839797
 H         4.484142         2.113383        -1.438663
 H         3.720369         0.724283        -2.402406
 H         2.174876         2.091199         0.969559
