19
Iteration:  3425
 C        -0.144067        -0.046675        -0.109020
 C         1.365480         0.137387         0.151678
 C         1.944350        -0.197950         1.578951
 C         3.473075         0.033789         1.236051
 C         3.302446         0.461084        -0.217371
 C         3.899748         1.126871        -1.386245
 O         2.499167         1.506969        -1.768864
 C         2.109736         1.426933        -0.355251
 O         2.374045        -0.696063        -0.605954
 H        -0.261619        -0.882934        -0.811371
 H        -0.606684        -0.322130         0.849542
 H        -0.743938         0.826104        -0.446282
 H         1.507423         0.445296         2.352515
 H         1.652432        -1.337723         2.004834
 H         3.895127         0.941874         1.638934
 H         3.955154        -0.873388         1.520274
 H         4.457041         2.006079        -1.292156
 H         4.416673         0.537704        -2.211146
 H         1.901184         2.470247         0.092850
