19
Iteration:  3109charge 0 multiplicity 1
 C        -0.005162        -0.153281        -0.210467
 C         1.386732         0.127909         0.179069
 C         2.039091        -0.295251         1.472816
 C         3.486894        -0.075268         1.138616
 C         3.275695         0.367858        -0.216536
 C         3.776547         1.081112        -1.444001
 O         2.406712         1.829469        -1.515223
 C         2.150799         1.417439        -0.088700
 O         2.310944        -0.562830        -0.742869
 H        -0.602219        -0.975025         0.323023
 H        -0.687201         0.775654        -0.154766
 H        -0.043285        -0.440652        -1.346601
 H         1.578006         0.046578         2.370876
 H         1.657155        -1.407245         1.497118
 H         3.996554         0.758672         1.724785
 H         4.056273        -1.013663         1.280074
 H         4.537347         1.845475        -1.369767
 H         4.038771         0.290487        -2.234328
 H         2.206063         2.308404         0.565011
