19
Iteration:  1761charge 0 multiplicity 1
 C        -0.119951        -0.159401        -0.084890
 C         1.397003        -0.009105         0.081569
 C         2.044883        -0.629040         1.502051
 C         3.631410        -0.233417         0.948410
 C         3.258677         0.349917        -0.344414
 C         3.797046         1.494507        -1.249194
 O         2.441047         2.110134        -1.283428
 C         2.081052         1.328101        -0.048212
 O         2.230800        -0.624094        -1.047611
 H        -0.603068        -1.127657         0.141970
 H        -0.573233         0.646695         0.587964
 H        -0.468651         0.090749        -1.124992
 H         1.673966        -0.119364         2.427259
 H         2.190238        -1.735671         1.610173
 H         4.033294         0.547783         1.686992
 H         4.455638        -1.153409         0.987023
 H         4.553322         2.186005        -0.710447
 H         4.206274         1.321709        -2.308209
 H         2.240823         1.969073         0.819164
