19
Iteration:  2568
 C        -0.114408        -0.250273        -0.066707
 C         1.334679         0.056329         0.132850
 C         2.003936        -0.595740         1.387449
 C         3.573203        -0.318254         1.028821
 C         3.324486         0.399385        -0.235886
 C         3.792751         1.412809        -1.297079
 O         2.387787         1.996195        -1.417581
 C         2.207096         1.441261        -0.022384
 O         2.292828        -0.444107        -0.945131
 H        -0.257225        -0.426525        -1.120086
 H        -0.444029        -1.135133         0.401207
 H        -0.865738         0.532626         0.197240
 H         1.896305        -0.000902         2.316634
 H         1.874900        -1.641453         1.468468
 H         4.089715         0.254881         1.750814
 H         4.045106        -1.301983         0.743346
 H         4.600113         2.033014        -1.105207
 H         4.052410         0.998013        -2.221179
 H         2.201040         2.217852         0.737704
