19
Iteration:  4589charge 0 multiplicity 1
 C        -0.190217        -0.211735        -0.151786
 C         1.243697         0.091476         0.255261
 C         1.858862         0.295889         1.608121
 C         3.451279         0.379242         1.263452
 C         3.270687         0.293369        -0.238850
 C         3.869737         0.771155        -1.514260
 O         2.667990         1.529262        -1.819525
 C         2.171191         1.396529        -0.400767
 O         2.391204        -0.840578        -0.486944
 H        -0.282451        -1.201235        -0.607519
 H        -0.937189        -0.129632         0.689446
 H        -0.633923         0.610751        -0.780865
 H         1.529129         1.278323         2.125824
 H         1.495204        -0.382308         2.381932
 H         4.050465         1.304728         1.534125
 H         4.072064        -0.399807         1.711921
 H         4.850802         1.426061        -1.299236
 H         4.087114         0.028226        -2.349974
 H         2.272678         2.328538         0.132374
