19
Iteration:   272
 C        -0.159548        -0.238196        -0.125874
 C         1.354431         0.037483         0.114142
 C         2.043933        -0.660909         1.257134
 C         3.568479        -0.386793         0.903748
 C         3.296212         0.468526        -0.278603
 C         3.772131         1.484722        -1.333779
 O         2.436657         2.092102        -1.204968
 C         2.154048         1.396482         0.084059
 O         2.324738        -0.506014        -0.943328
 H        -0.575829        -0.048617         0.814759
 H        -0.564494         0.450328        -0.837120
 H        -0.257385        -1.264980        -0.377901
 H         1.751543        -0.150364         2.194525
 H         1.809750        -1.694643         1.319108
 H         4.074300         0.171347         1.725817
 H         4.172677        -1.195636         0.711012
 H         4.469847         2.080318        -0.823904
 H         4.081677         1.074226        -2.292623
 H         2.045238         2.095431         0.980933
