19
Iteration:  3163
 C        -0.096500        -0.128131         0.036293
 C         1.358855         0.070277         0.103932
 C         1.935406        -0.218749         1.485636
 C         3.523601        -0.059275         1.151423
 C         3.264507         0.402533        -0.248422
 C         3.892719         1.177013        -1.339702
 O         2.484256         1.813774        -1.545890
 C         2.118838         1.355724        -0.288575
 O         2.345826        -0.723105        -0.818200
 H        -0.285605        -0.940700        -0.721400
 H        -0.824303        -0.459475         0.817398
 H        -0.691417         0.686045        -0.507801
 H         1.604300         0.606964         2.033846
 H         1.370508        -1.193337         1.827628
 H         3.964486         0.594699         1.930434
 H         4.099190        -0.952789         0.982217
 H         4.516149         2.062321        -0.940704
 H         4.411027         0.780233        -2.322042
 H         2.137126         2.262280         0.406791
