19
Iteration:   390charge 0 multiplicity 1
 C        -0.141689        -0.240960        -0.052981
 C         1.325690         0.137434         0.144568
 C         2.025070        -0.635700         1.263909
 C         3.555608        -0.426044         0.998595
 C         3.303971         0.443910        -0.232460
 C         3.799265         1.460883        -1.319268
 O         2.418152         1.995803        -1.337328
 C         2.119518         1.464546        -0.038344
 O         2.378800        -0.477733        -0.913931
 H        -0.110979        -1.061482        -0.730013
 H        -0.477662        -0.644901         0.914685
 H        -0.756368         0.578874        -0.356678
 H         1.740399        -0.271194         2.262338
 H         1.719152        -1.640772         1.148950
 H         4.103655         0.096548         1.786580
 H         4.090888        -1.324316         0.920913
 H         4.462351         2.305754        -0.943218
 H         4.095389         1.035189        -2.321716
 H         2.079576         2.298946         0.660839
