19
Iteration:  4391
 C        -0.088448        -0.076047        -0.145530
 C         1.332143         0.193354         0.141196
 C         1.923677         0.161281         1.591219
 C         3.437863         0.280479         1.283081
 C         3.248170         0.314879        -0.186557
 C         3.894296         0.975660        -1.405734
 O         2.539062         1.370313        -1.886577
 C         2.126799         1.261214        -0.420869
 O         2.353369        -0.767668        -0.437595
 H        -0.779299        -0.361698         0.614708
 H        -0.651974         0.881479        -0.497001
 H        -0.201605        -0.807225        -0.919924
 H         1.663369         1.043563         2.194848
 H         1.597695        -0.742446         1.983900
 H         3.921772         1.239268         1.613052
 H         3.918206        -0.658192         1.699175
 H         4.440009         1.817995        -1.124765
 H         4.510129         0.349854        -2.024144
 H         2.358239         2.336007        -0.145450
