19
Iteration:  3904
 C        -0.069151        -0.268340        -0.203828
 C         1.383218         0.168143         0.115577
 C         1.834236         0.283259         1.586751
 C         3.447588         0.219372         1.392254
 C         3.310078         0.426835        -0.143795
 C         3.876626         0.731651        -1.561564
 O         2.551258         1.535864        -1.870560
 C         2.158397         1.383825        -0.398142
 O         2.316843        -0.691354        -0.391145
 H        -0.637543        -0.742347         0.557918
 H        -0.779039         0.566263        -0.479997
 H        -0.031939        -0.886070        -1.111358
 H         1.658797         1.186234         2.101907
 H         1.442422        -0.586559         2.158418
 H         3.996252         0.984652         2.019840
 H         3.777959        -0.856181         1.520658
 H         4.768723         1.446278        -1.560443
 H         4.033714        -0.279385        -2.135368
 H         2.141075         2.405472         0.160072
