19
Iteration:   702charge 0 multiplicity 1
 C        -0.128845        -0.266640        -0.220840
 C         1.350168         0.022153         0.044704
 C         2.125916        -0.521864         1.489245
 C         3.648648        -0.382873         1.017889
 C         3.292131         0.432225        -0.319464
 C         3.758000         1.414756        -1.360007
 O         2.455118         2.127980        -1.201808
 C         2.171049         1.379195        -0.017682
 O         2.169874        -0.486677        -0.927977
 H        -0.158344        -1.093930        -0.917850
 H        -0.681850        -0.667777         0.617883
 H        -0.767656         0.482914        -0.621925
 H         1.708906         0.081726         2.312389
 H         1.833980        -1.602645         1.557622
 H         4.309478         0.228412         1.627675
 H         4.090917        -1.423536         0.887160
 H         4.679075         2.023840        -1.138786
 H         3.826959         0.829460        -2.260269
 H         2.098181         2.072809         0.901756
