19
Iteration:  1188
 C        -0.063927        -0.167132        -0.063553
 C         1.382921         0.021225         0.040427
 C         2.045538        -0.629991         1.292846
 C         3.558175        -0.406467         1.035600
 C         3.293687         0.406490        -0.327802
 C         3.780514         1.456801        -1.235025
 O         2.366849         2.113607        -1.356498
 C         2.142923         1.420866        -0.014110
 O         2.325211        -0.518796        -0.911691
 H        -0.334242        -1.196321         0.271975
 H        -0.518457         0.451791         0.755125
 H        -0.610462         0.038705        -1.010772
 H         1.974844        -0.403227         2.354237
 H         1.722122        -1.726326         1.161239
 H         3.948135         0.097339         1.934913
 H         4.039540        -1.368619         0.818500
 H         4.545873         2.145055        -0.733698
 H         3.967419         1.192968        -2.276745
 H         2.060629         2.141878         0.761276
