19
Iteration:  1647charge 0 multiplicity 1
 C        -0.105457        -0.187123        -0.075354
 C         1.327501         0.001055         0.115586
 C         2.042245        -0.560711         1.403696
 C         3.610739        -0.283821         0.977353
 C         3.298998         0.359309        -0.351944
 C         3.733112         1.418202        -1.335297
 O         2.478099         2.099645        -1.176208
 C         2.079447         1.344100        -0.035462
 O         2.322405        -0.575638        -1.034210
 H        -0.344221        -1.224304        -0.197376
 H        -0.613761         0.308122         0.683826
 H        -0.302515         0.285673        -1.033135
 H         1.681416         0.275537         2.170462
 H         1.744324        -1.529222         1.820208
 H         3.992510         0.427011         1.705548
 H         4.342325        -1.025803         0.917448
 H         4.631257         2.106060        -1.115432
 H         3.821759         1.104976        -2.367341
 H         1.947023         1.897557         0.889998
