19
Iteration:  1763
 C        -0.129023        -0.157186        -0.086127
 C         1.394167        -0.000254         0.080493
 C         2.063624        -0.619980         1.512097
 C         3.632977        -0.232100         0.947770
 C         3.254746         0.361005        -0.353245
 C         3.812744         1.497364        -1.256800
 O         2.445808         2.109087        -1.267722
 C         2.073139         1.296832        -0.042691
 O         2.223933        -0.622039        -1.056516
 H        -0.590738        -1.140975         0.209104
 H        -0.627412         0.622701         0.567833
 H        -0.393416         0.095022        -1.192343
 H         1.697963        -0.151869         2.374324
 H         2.141806        -1.690371         1.618012
 H         3.998400         0.525074         1.685921
 H         4.465546        -1.110657         1.032135
 H         4.569448         2.137084        -0.733728
 H         4.183831         1.286142        -2.298078
 H         2.150579         1.988681         0.791344
