19
Iteration:  4317charge 0 multiplicity 1
 C         0.012913        -0.257913        -0.152847
 C         1.345315         0.280799         0.126453
 C         1.868485         0.238803         1.671327
 C         3.409139         0.217962         1.388589
 C         3.216173         0.397093        -0.140712
 C         3.873102         0.743682        -1.522504
 O         2.616113         1.437881        -1.869649
 C         2.166035         1.388218        -0.462552
 O         2.258924        -0.628073        -0.473203
 H         0.182919        -1.318820        -0.303920
 H        -0.811402        -0.194273         0.641399
 H        -0.404497         0.048854        -1.108310
 H         1.493957         1.079784         2.285847
 H         1.619400        -0.745496         2.062350
 H         3.733884         1.139044         1.965335
 H         3.933676        -0.742848         1.556739
 H         4.848981         1.452214        -1.722823
 H         4.003507        -0.185558        -2.169928
 H         2.253694         2.494860        -0.122875
