19
Iteration:  1998charge 0 multiplicity 1
 C        -0.097685        -0.124897        -0.145062
 C         1.388287        -0.060410         0.034222
 C         2.017279        -0.529187         1.428528
 C         3.667747        -0.288707         1.016269
 C         3.221155         0.395599        -0.304350
 C         3.723354         1.426897        -1.388864
 O         2.431288         2.062695        -1.199428
 C         2.100341         1.310781        -0.044115
 O         2.322448        -0.536672        -0.957323
 H        -0.723261        -1.027245         0.216725
 H        -0.399345         0.781614         0.517701
 H        -0.243078        -0.068075        -1.247636
 H         1.780122         0.021898         2.313622
 H         1.715321        -1.572626         1.753201
 H         4.152286         0.316973         1.782926
 H         4.307728        -1.114777         1.018494
 H         4.603765         2.021698        -1.125572
 H         4.046408         0.881731        -2.310427
 H         1.998663         1.886909         0.918115
