19
Iteration:  3239
 C        -0.095130        -0.146444        -0.213199
 C         1.322097         0.141064         0.118149
 C         1.953635        -0.203024         1.585660
 C         3.566261        -0.086266         1.317445
 C         3.289435         0.423150        -0.142312
 C         3.754522         0.989980        -1.542561
 O         2.465143         1.769303        -1.597947
 C         2.179283         1.466468        -0.215749
 O         2.372238        -0.601893        -0.722467
 H        -0.650128         0.570215        -0.809265
 H        -0.036080        -0.983471        -0.929142
 H        -0.836496        -0.521342         0.551671
 H         1.667365         0.377848         2.411231
 H         1.896004        -1.396066         1.600813
 H         3.930158         0.728142         1.936381
 H         4.135888        -0.958680         1.478521
 H         4.508171         1.895027        -1.474882
 H         3.905766         0.308211        -2.524749
 H         1.990524         2.380571         0.490863
