19
Iteration:   861charge 0 multiplicity 1
 C        -0.077318        -0.230968        -0.187992
 C         1.318173         0.009313         0.058169
 C         2.147916        -0.568837         1.455100
 C         3.620262        -0.388362         0.954763
 C         3.229136         0.382075        -0.295387
 C         3.709558         1.378918        -1.337524
 O         2.473254         2.023070        -1.255604
 C         2.058305         1.366198         0.095347
 O         2.265117        -0.336212        -0.981257
 H        -0.303827        -1.157046         0.322877
 H        -0.644665         0.549257         0.355034
 H        -0.204597        -0.292205        -1.268083
 H         1.906951         0.124572         2.213878
 H         1.846408        -1.645730         1.722504
 H         4.181302         0.320634         1.520092
 H         4.192996        -1.312351         0.701733
 H         4.546534         1.946107        -0.778819
 H         3.969546         1.144257        -2.424897
 H         2.163982         2.063252         1.006532
