19
Iteration:  3508
 C        -0.082784        -0.209034        -0.222784
 C         1.290384         0.089768         0.118157
 C         1.957174         0.086929         1.587994
 C         3.492851         0.128386         1.200158
 C         3.255581         0.332662        -0.215478
 C         3.778950         0.988346        -1.499623
 O         2.637169         1.771851        -1.628572
 C         2.143106         1.368575        -0.349570
 O         2.307343        -0.845033        -0.523937
 H        -0.633065         0.485965        -0.837833
 H        -0.252412        -1.158430        -0.745296
 H        -0.713987        -0.175223         0.756689
 H         1.746383         1.035917         2.206366
 H         1.608024        -0.748878         2.059603
 H         3.987308         1.020308         1.754324
 H         4.129748        -0.722733         1.575964
 H         4.651235         1.682054        -1.268275
 H         3.911930         0.237559        -2.332492
 H         1.982269         2.171323         0.335927
