19
Iteration:  4864
 C        -0.092244        -0.182671        -0.216121
 C         1.336377         0.276713         0.126575
 C         1.885603         0.148959         1.614806
 C         3.513200         0.241793         1.379769
 C         3.288501         0.424110        -0.127934
 C         3.861422         0.683637        -1.481071
 O         2.525130         1.385435        -1.818499
 C         2.107363         1.451836        -0.463285
 O         2.355830        -0.588197        -0.496661
 H        -0.203014        -1.278693        -0.475738
 H        -0.792349         0.010871         0.543940
 H        -0.531045         0.315356        -1.062043
 H         1.728546         0.733079         2.605438
 H         1.683593        -0.974197         1.972072
 H         4.090003         1.089783         1.838733
 H         4.025355        -0.622294         1.716274
 H         4.738336         1.361843        -1.647646
 H         4.008115        -0.335793        -1.865297
 H         1.904577         2.501557        -0.087606
