19
Iteration:   314
 C        -0.073177        -0.256313        -0.269782
 C         1.378721         0.024615         0.120027
 C         2.037826        -0.644472         1.372508
 C         3.610796        -0.409764         0.980991
 C         3.303096         0.412696        -0.297432
 C         3.700085         1.422191        -1.444923
 O         2.415018         2.121456        -1.166074
 C         2.185048         1.440008         0.098852
 O         2.265810        -0.452004        -0.869605
 H        -0.638535        -0.994761         0.236396
 H        -0.673100         0.642299        -0.271133
 H        -0.034801        -0.569009        -1.282792
 H         1.920061        -0.101220         2.310001
 H         1.670856        -1.655522         1.457207
 H         4.080377         0.175290         1.829403
 H         4.193347        -1.303868         0.867772
 H         4.593505         2.090123        -1.259696
 H         3.643832         1.057931        -2.511143
 H         2.187580         2.191677         0.972928
