19
Iteration:    47
 C        -0.156879        -0.256334        -0.205634
 C         1.295229         0.003175         0.085635
 C         2.110481        -0.715063         1.265649
 C         3.621458        -0.391331         0.845818
 C         3.264794         0.420312        -0.394786
 C         3.690544         1.510277        -1.409762
 O         2.507325         2.331157        -0.915412
 C         2.162891         1.303355         0.145998
 O         2.288206        -0.540480        -0.955632
 H        -0.634345        -0.906473         0.483142
 H        -0.779666         0.657295        -0.279253
 H        -0.208555        -0.767119        -1.202423
 H         1.821137        -0.342846         2.321526
 H         1.898460        -1.731903         1.265798
 H         4.194066         0.151122         1.689619
 H         4.122406        -1.287218         0.589294
 H         4.663348         2.032137        -1.150147
 H         3.662954         1.341372        -2.449303
 H         2.216202         1.827560         1.176166
