19
Iteration:  4215charge 0 multiplicity 1
 C        -0.017368        -0.237505        -0.208861
 C         1.366131         0.255244         0.134513
 C         1.845745         0.155925         1.646161
 C         3.516794         0.315193         1.360709
 C         3.217912         0.407746        -0.112329
 C         3.821599         0.699492        -1.476691
 O         2.617581         1.376480        -1.857026
 C         2.129402         1.427558        -0.415525
 O         2.269104        -0.606299        -0.502512
 H         0.046657        -1.319123        -0.350447
 H        -0.718217         0.029039         0.526292
 H        -0.326296         0.253197        -1.143660
 H         1.505588         0.904012         2.294188
 H         1.556462        -0.772694         1.979963
 H         3.994284         1.122202         1.832521
 H         4.018821        -0.571900         1.782291
 H         4.694470         1.490924        -1.539624
 H         3.962123        -0.168900        -2.130715
 H         2.065776         2.511151        -0.143090
