19
Iteration:  2984
 C        -0.108245        -0.095984        -0.072908
 C         1.358865         0.045683         0.047288
 C         2.019240        -0.402376         1.459803
 C         3.564681        -0.113864         1.222309
 C         3.254610         0.367603        -0.221113
 C         3.751257         1.245924        -1.404337
 O         2.482905         1.868963        -1.453228
 C         2.109302         1.390494        -0.185718
 O         2.355411        -0.602608        -0.876607
 H        -0.535252         0.744091        -0.647984
 H        -0.167716        -1.029438        -0.669499
 H        -0.636193        -0.024178         0.855726
 H         1.576547         0.058430         2.319956
 H         1.966390        -1.419228         1.625009
 H         4.095494         0.563506         1.817013
 H         3.993205        -1.127797         1.177501
 H         4.536590         1.986216        -1.206943
 H         3.950572         0.603578        -2.233327
 H         1.959665         2.231683         0.583655
