19
Iteration:  2961
 C        -0.104399        -0.161577        -0.262493
 C         1.374411         0.036854         0.150273
 C         2.005254        -0.343411         1.460387
 C         3.552790        -0.154756         1.134798
 C         3.313022         0.354728        -0.315173
 C         3.751970         1.251356        -1.477548
 O         2.416533         1.931584        -1.382286
 C         2.197998         1.361535        -0.036306
 O         2.308810        -0.644203        -0.781481
 H        -0.402177         0.310730        -1.228892
 H        -0.394544        -1.213311        -0.168498
 H        -0.590926         0.604451         0.360840
 H         1.842938         0.473871         2.211965
 H         1.670744        -1.222580         1.890327
 H         3.802108         0.580409         1.855370
 H         4.225815        -1.075773         1.087675
 H         4.503053         2.052867        -1.165789
 H         3.953043         0.740405        -2.419568
 H         2.238335         2.107255         0.842199
