19
Iteration:  3123
 C        -0.127409        -0.111262        -0.164100
 C         1.335391         0.138755         0.148759
 C         1.980365        -0.423391         1.494887
 C         3.565861        -0.078539         1.228450
 C         3.293279         0.447888        -0.190333
 C         3.855172         1.136866        -1.429214
 O         2.428167         1.758706        -1.560502
 C         2.159664         1.432960        -0.207835
 O         2.285398        -0.561623        -0.786878
 H        -0.265690        -1.181616         0.197943
 H        -0.743175         0.626736         0.342309
 H        -0.164659        -0.055632        -1.272379
 H         1.713949         0.231425         2.430143
 H         1.980566        -1.491369         1.644337
 H         3.942606         0.716382         1.951654
 H         4.261438        -1.008004         1.297557
 H         4.650353         1.829133        -1.313066
 H         3.935741         0.511343        -2.277288
 H         2.066497         2.247377         0.477888
