19
Iteration:  2670
 C        -0.028570        -0.251801        -0.281838
 C         1.383150         0.066763         0.166350
 C         2.067077        -0.456000         1.457914
 C         3.588464        -0.368775         0.939789
 C         3.289733         0.424151        -0.272474
 C         3.684935         1.276620        -1.448283
 O         2.429176         2.087073        -1.228500
 C         2.136505         1.447179        -0.017238
 O         2.279119        -0.493553        -0.838494
 H        -0.254885         0.031238        -1.313381
 H        -0.280020        -1.278879         0.107633
 H        -0.809913         0.142917         0.305467
 H         1.779206         0.001697         2.475940
 H         1.728078        -1.551934         1.607235
 H         4.164069         0.261367         1.729272
 H         4.016584        -1.431530         0.839810
 H         4.513420         1.936495        -1.139985
 H         3.879342         0.745728        -2.409493
 H         2.022696         2.103541         0.834405
