19
Iteration:   423charge 0 multiplicity 1
 C        -0.115425        -0.228215        -0.180042
 C         1.327424         0.031538         0.207160
 C         2.121078        -0.612458         1.383742
 C         3.592127        -0.312487         1.015632
 C         3.245744         0.406715        -0.242869
 C         3.777490         1.365908        -1.362731
 O         2.446565         2.054535        -1.239352
 C         2.102800         1.450709         0.002686
 O         2.274230        -0.460686        -1.018479
 H         0.080501        -0.850368        -1.008339
 H        -0.645086        -0.753080         0.607378
 H        -0.664838         0.662991        -0.482294
 H         1.900849        -0.191756         2.376899
 H         1.914436        -1.652917         1.410840
 H         4.006721         0.427284         1.683198
 H         3.942755        -1.255542         0.923053
 H         4.660848         2.050749        -1.264478
 H         3.953785         0.761169        -2.298251
 H         2.244993         2.190973         0.789290
