19
Iteration:   438charge 0 multiplicity 1
 C        -0.168137        -0.201359        -0.217530
 C         1.359504         0.012974         0.044942
 C         2.094138        -0.499141         1.400963
 C         3.618284        -0.270563         0.983819
 C         3.290798         0.367451        -0.338713
 C         3.706763         1.333477        -1.363633
 O         2.451040         2.064532        -1.147488
 C         2.157342         1.271999         0.071168
 O         2.293689        -0.457738        -0.951424
 H        -0.251500        -0.904680        -1.073757
 H        -0.668579        -0.648327         0.658062
 H        -0.574641         0.807769        -0.480402
 H         1.775540         0.235391         2.162656
 H         1.849440        -1.568712         1.702172
 H         4.142222         0.475972         1.699472
 H         4.424100        -1.087041         0.933110
 H         4.572486         1.988373        -1.072057
 H         3.730463         0.979779        -2.422640
 H         1.926714         1.940655         0.998491
