19
Iteration:  4573charge 0 multiplicity 1
 C        -0.239758        -0.160908        -0.155858
 C         1.348136         0.139215         0.063964
 C         1.976517         0.257037         1.690251
 C         3.485146         0.332554         1.310347
 C         3.252026         0.349574        -0.168135
 C         3.908526         0.804291        -1.445379
 O         2.627608         1.442778        -1.858146
 C         2.124639         1.311650        -0.478218
 O         2.307296        -0.733025        -0.444675
 H        -0.420368        -1.159576        -0.597554
 H        -0.783747        -0.099051         0.764328
 H        -0.581219         0.575772        -0.866500
 H         1.534866         1.106636         2.172185
 H         1.896038        -0.722309         2.189628
 H         3.843079         1.288291         1.625583
 H         4.041741        -0.555028         1.655732
 H         4.659806         1.588138        -1.338301
 H         4.259272        -0.006729        -2.064289
 H         1.882485         2.304663        -0.010648
