19
Iteration:  1240charge 0 multiplicity 1
 C        -0.090120        -0.171077        -0.227134
 C         1.348674         0.047540         0.058886
 C         2.105584        -0.567308         1.408348
 C         3.679856        -0.382295         0.969727
 C         3.251163         0.424945        -0.311649
 C         3.682999         1.375783        -1.325386
 O         2.380123         2.149059        -1.145351
 C         2.142944         1.393895         0.013134
 O         2.296039        -0.569149        -0.955801
 H        -0.341716        -1.267854        -0.116559
 H        -0.904342         0.488896         0.214282
 H        -0.135237         0.028712        -1.332212
 H         2.049882         0.012374         2.294907
 H         1.744423        -1.604020         1.702290
 H         4.233103         0.248545         1.766446
 H         4.181304        -1.465280         0.997477
 H         4.521781         1.919192        -1.000886
 H         3.828291         1.000975        -2.384504
 H         2.093468         2.013607         0.940926
