19
Iteration:   532
 C        -0.111873        -0.256905        -0.077636
 C         1.365752        -0.021198         0.112207
 C         2.077591        -0.720338         1.312406
 C         3.519328        -0.328717         0.996019
 C         3.269030         0.437337        -0.323685
 C         3.760873         1.460281        -1.332731
 O         2.467790         2.123312        -1.268455
 C         2.195431         1.463212         0.009993
 O         2.284740        -0.486763        -0.893616
 H        -0.583907        -1.203244         0.423293
 H        -0.755434         0.592139         0.388683
 H        -0.486294        -0.230021        -1.153987
 H         1.656808        -0.246018         2.267362
 H         1.916911        -1.758978         1.116102
 H         4.183741         0.257848         1.691102
 H         3.940332        -1.260758         0.737502
 H         4.626199         2.034246        -1.032374
 H         3.955417         1.069777        -2.377180
 H         2.140810         2.267468         0.670169
