19
Iteration:  4035charge 0 multiplicity 1
 C        -0.130540        -0.250387        -0.252724
 C         1.354431         0.178017         0.144881
 C         1.834000         0.352496         1.671098
 C         3.488635         0.318996         1.328008
 C         3.233097         0.321248        -0.184916
 C         3.823367         0.835769        -1.549671
 O         2.624053         1.476266        -1.804748
 C         2.182063         1.361327        -0.424899
 O         2.326048        -0.854054        -0.379785
 H        -0.086556        -1.219458        -0.693361
 H        -0.913560        -0.042336         0.552460
 H        -0.333822         0.323393        -1.168066
 H         1.575973         1.338997         2.006495
 H         1.507425        -0.400354         2.442183
 H         3.911601         1.347986         1.679865
 H         4.132691        -0.541605         1.663889
 H         4.754980         1.493261        -1.454073
 H         4.205282         0.078924        -2.385830
 H         2.172972         2.330000         0.024149
