19
Iteration:  4800
 C        -0.166593        -0.093522        -0.040965
 C         1.298258         0.051413         0.025332
 C         1.869005         0.255958         1.479385
 C         3.479507         0.240199         1.297237
 C         3.292061         0.392336        -0.179332
 C         3.942936         0.910394        -1.406029
 O         2.572715         1.453654        -1.821860
 C         2.137139         1.347012        -0.407785
 O         2.352974        -0.845323        -0.463803
 H        -0.489560        -1.110229         0.290285
 H        -0.470873         0.748788         0.534781
 H        -0.440460         0.086817        -1.046725
 H         1.619602         1.234357         1.862797
 H         1.499358        -0.595753         2.098704
 H         3.929639         1.096496         1.838866
 H         3.780442        -0.632402         1.809886
 H         4.716870         1.806065        -1.403618
 H         4.314530         0.174438        -2.155848
 H         2.053457         2.283546         0.014103
