19
Iteration:  4456
 C        -0.090366        -0.284957        -0.130397
 C         1.310849         0.170202         0.077397
 C         1.910424         0.248841         1.561945
 C         3.460044         0.305716         1.405035
 C         3.310080         0.325890        -0.210418
 C         3.873829         0.788764        -1.521317
 O         2.604887         1.563251        -1.776500
 C         2.175478         1.370718        -0.443893
 O         2.257432        -0.745001        -0.461663
 H        -0.525460        -0.591676         0.822854
 H        -0.598069         0.737061        -0.448773
 H        -0.073675        -1.063371        -0.866323
 H         1.331148         1.110903         2.074666
 H         1.596816        -0.678790         1.992840
 H         3.806677         1.235570         1.863037
 H         4.008215        -0.619635         1.713206
 H         4.761283         1.410957        -1.517987
 H         3.941108         0.003833        -2.271751
 H         2.102777         2.343530         0.078890
