19
Iteration:  2531charge 0 multiplicity 1
 C        -0.184532        -0.238039        -0.227890
 C         1.396715        -0.008798         0.066076
 C         2.082924        -0.406595         1.487803
 C         3.592624        -0.263825         1.033646
 C         3.286801         0.344378        -0.340781
 C         3.692106         1.348023        -1.388596
 O         2.474374         2.173286        -1.199404
 C         2.177215         1.340448        -0.045446
 O         2.314753        -0.631837        -0.900148
 H        -0.332013         0.354051        -1.145890
 H        -0.410730        -1.352225        -0.310574
 H        -0.803973         0.170029         0.600471
 H         1.711365         0.266993         2.230636
 H         1.719697        -1.375672         1.947988
 H         4.392535         0.351778         1.556668
 H         3.986189        -1.233039         0.933066
 H         4.632787         2.029585        -1.201797
 H         3.487539         0.823162        -2.381495
 H         2.014883         2.021181         0.840951
