19
Iteration:  3131charge 0 multiplicity 1
 C        -0.141990        -0.110514        -0.126706
 C         1.342641         0.120623         0.075917
 C         2.007287        -0.398173         1.544499
 C         3.581380        -0.079266         1.236619
 C         3.303581         0.422352        -0.163679
 C         3.813939         1.175427        -1.479937
 O         2.505348         1.742141        -1.601053
 C         2.113450         1.438749        -0.172105
 O         2.292412        -0.569638        -0.779810
 H        -0.399807        -1.229684         0.009858
 H        -0.782861         0.523673         0.567764
 H        -0.455530         0.153215        -1.227671
 H         1.578643         0.022742         2.443207
 H         1.711316        -1.523557         1.694640
 H         3.863158         0.631511         2.057187
 H         4.307887        -0.916946         1.178770
 H         4.553998         1.907086        -1.184661
 H         4.153873         0.618563        -2.430100
 H         2.011397         2.320455         0.496513
