19
Iteration:  4272charge 0 multiplicity 1
 C        -0.065697        -0.040609        -0.059400
 C         1.357800         0.126099         0.127719
 C         1.890810         0.239807         1.561221
 C         3.366519         0.300626         1.323806
 C         3.272125         0.362922        -0.194185
 C         3.965333         0.917065        -1.382069
 O         2.587030         1.436176        -1.900192
 C         2.084467         1.253451        -0.534500
 O         2.363754        -0.881487        -0.431952
 H        -0.421405        -0.949262        -0.458802
 H        -0.726227        -0.035708         0.870890
 H        -0.488414         0.637673        -0.787016
 H         1.608076         1.173185         2.087390
 H         1.547222        -0.584100         2.103520
 H         3.834566         1.177487         1.784510
 H         3.708275        -0.731818         1.624190
 H         4.552930         1.952838        -1.268627
 H         4.508195         0.323135        -2.156374
 H         1.764520         2.317977        -0.109364
