19
Iteration:   623charge 0 multiplicity 1
 C         0.003302        -0.177903        -0.144351
 C         1.385434         0.117048         0.119000
 C         2.049519        -0.641135         1.296694
 C         3.579192        -0.404747         0.989585
 C         3.231311         0.502007        -0.219255
 C         3.739023         1.387846        -1.337834
 O         2.334144         2.010030        -1.366321
 C         2.160522         1.460340         0.063920
 O         2.320328        -0.472149        -0.866865
 H        -0.145842        -1.261010        -0.334675
 H        -0.589725        -0.030956         0.801421
 H        -0.435414         0.317158        -1.037201
 H         1.809512        -0.405122         2.346415
 H         1.677112        -1.739326         1.119393
 H         4.223464         0.050616         1.772939
 H         4.036922        -1.372494         0.646589
 H         4.568428         2.115212        -1.036586
 H         3.962226         0.851850        -2.280749
 H         2.184420         2.062921         1.013709
