19
Iteration:  4633charge 0 multiplicity 1
 C        -0.153610        -0.256885        -0.100168
 C         1.371589         0.243982         0.116467
 C         1.859727         0.230029         1.567482
 C         3.476632         0.219061         1.352019
 C         3.219924         0.424203        -0.139607
 C         3.858795         0.689430        -1.516988
 O         2.600016         1.487586        -1.856953
 C         2.175795         1.455509        -0.471127
 O         2.372740        -0.685509        -0.435403
 H         0.040721        -1.302928        -0.395911
 H        -0.853422        -0.170617         0.742500
 H        -0.619432         0.218144        -1.009577
 H         1.510056         1.125355         2.165913
 H         1.419793        -0.576272         2.187716
 H         4.003235         0.926461         2.009119
 H         3.935514        -0.709243         1.661731
 H         4.750270         1.451085        -1.566447
 H         3.994919        -0.219537        -2.190501
 H         2.102122         2.447535        -0.134539
