19
Iteration:  3763charge 0 multiplicity 1
 C        -0.047450        -0.275068        -0.218825
 C         1.289714         0.212548         0.128349
 C         1.872184         0.172535         1.636707
 C         3.422780         0.179137         1.359313
 C         3.271076         0.419962        -0.154303
 C         3.845898         0.801506        -1.558754
 O         2.595413         1.486758        -1.821337
 C         2.220719         1.436328        -0.355513
 O         2.291395        -0.619009        -0.478987
 H        -0.470634         0.502370        -0.825725
 H         0.129567        -1.285603        -0.694979
 H        -0.457903        -0.454062         0.782793
 H         1.506459         0.987343         2.289024
 H         1.434436        -0.890743         2.066536
 H         3.934480         1.058820         1.752032
 H         3.934365        -0.763205         1.579899
 H         4.685534         1.419448        -1.682684
 H         3.886686        -0.152141        -2.226145
 H         2.277807         2.420981         0.211426
