19
Iteration:  2410charge 0 multiplicity 1
 C        -0.146787        -0.230965        -0.141103
 C         1.371747         0.059975         0.084060
 C         2.081559        -0.423408         1.491078
 C         3.583237        -0.242351         1.030556
 C         3.252799         0.331861        -0.356475
 C         3.821240         1.412753        -1.356841
 O         2.448274         2.056146        -1.232407
 C         2.149679         1.276180        -0.030738
 O         2.242490        -0.569406        -0.974435
 H        -0.342669         0.368043        -1.079123
 H        -0.319336        -1.339387        -0.271302
 H        -0.765059         0.094426         0.657313
 H         1.649994         0.208708         2.248526
 H         1.718215        -1.466329         1.660954
 H         4.121575         0.479868         1.663127
 H         4.097506        -1.111128         0.834349
 H         4.763861         1.967151        -1.086485
 H         4.032602         0.953078        -2.342895
 H         2.173347         1.954117         0.871288
