19
Iteration:  2905charge 0 multiplicity 1
 C        -0.187098        -0.276707        -0.140660
 C         1.359168         0.070400         0.083638
 C         1.999763        -0.361274         1.482478
 C         3.556419        -0.232312         1.093450
 C         3.362330         0.459514        -0.189580
 C         3.793574         1.280826        -1.393119
 O         2.489944         1.894605        -1.447114
 C         2.142611         1.417551        -0.056106
 O         2.275364        -0.494264        -0.913378
 H        -0.138787        -1.290642        -0.567222
 H        -0.577102        -0.400532         0.872868
 H        -0.549945         0.606457        -0.692166
 H         1.651205         0.145962         2.430247
 H         1.656999        -1.393375         1.584391
 H         4.153063         0.287530         1.868691
 H         4.058735        -1.238449         0.874650
 H         4.689533         1.955757        -1.262957
 H         3.977937         0.555566        -2.201718
 H         2.058354         2.178910         0.786531
