19
Iteration:  3632charge 0 multiplicity 1
 C        -0.087183        -0.243735        -0.209520
 C         1.317130         0.142068         0.147654
 C         1.898150         0.137114         1.573779
 C         3.421753         0.149595         1.327850
 C         3.309441         0.350445        -0.241497
 C         3.824309         0.883686        -1.595972
 O         2.610139         1.685219        -1.733445
 C         2.182612         1.429347        -0.283225
 O         2.290862        -0.763717        -0.502856
 H        -0.256658        -1.015202         0.605548
 H        -0.911343         0.534521        -0.054206
 H        -0.114906        -0.752922        -1.186737
 H         1.541194         0.972746         2.150216
 H         1.621186        -0.821258         2.192378
 H         3.973272         0.924498         1.826363
 H         3.943215        -0.724462         1.696290
 H         4.653798         1.614722        -1.387619
 H         4.159088         0.113183        -2.470417
 H         2.130420         2.317025         0.269067
