19
Iteration:  2426charge 0 multiplicity 1
 C        -0.095532        -0.163206        -0.084562
 C         1.371967        -0.052780         0.048549
 C         2.008274        -0.423722         1.351832
 C         3.581422        -0.283147         0.999845
 C         3.297453         0.341154        -0.341760
 C         3.739866         1.395996        -1.277921
 O         2.461994         1.996921        -1.307870
 C         2.146975         1.399658        -0.044876
 O         2.275438        -0.585611        -0.917008
 H        -0.607369         0.579365        -0.650037
 H        -0.397141        -1.088116        -0.538218
 H        -0.482687        -0.091344         0.993370
 H         1.880554         0.286727         2.262598
 H         1.898208        -1.478311         1.652682
 H         4.079636         0.521019         1.635099
 H         4.109986        -1.332093         1.162521
 H         4.345259         2.121973        -0.746629
 H         4.177832         1.327583        -2.280679
 H         2.136288         2.102699         0.778674
