19
Iteration:   685
 C        -0.080110        -0.254288        -0.173723
 C         1.388450         0.031849         0.178834
 C         2.038221        -0.521700         1.373761
 C         3.531576        -0.292439         0.931263
 C         3.195936         0.302684        -0.369438
 C         3.722284         1.443891        -1.383394
 O         2.511037         2.220781        -1.223068
 C         2.135673         1.383640         0.006498
 O         2.287879        -0.658285        -0.880304
 H        -0.003726        -0.976396        -1.021903
 H        -0.605570        -0.561516         0.757400
 H        -0.474001         0.755886        -0.486140
 H         1.953132        -0.030096         2.366606
 H         1.774407        -1.530352         1.521636
 H         4.065133         0.331231         1.699008
 H         4.093675        -1.171323         0.835937
 H         4.566766         1.900364        -0.795168
 H         4.030927         1.363352        -2.466793
 H         2.174665         1.902246         0.970445
