19
Iteration:   258charge 0 multiplicity 1
 C        -0.159388        -0.160826        -0.072452
 C         1.332882         0.023876         0.068624
 C         2.128675        -0.647279         1.327660
 C         3.615921        -0.397346         0.966088
 C         3.252114         0.340502        -0.366394
 C         3.773669         1.591847        -1.188781
 O         2.458541         2.175963        -1.262413
 C         2.099336         1.316092        -0.026170
 O         2.284259        -0.577633        -0.970662
 H        -0.803096         0.359535         0.675914
 H        -0.440271         0.019725        -1.125036
 H        -0.365840        -1.213356         0.058276
 H         1.900699        -0.331876         2.335504
 H         1.840699        -1.750863         1.326125
 H         4.102166         0.218175         1.721553
 H         4.168311        -1.405289         0.814049
 H         4.511155         2.292393        -0.678251
 H         4.126507         1.502506        -2.254920
 H         2.101002         2.042631         0.841518
