19
Iteration:  4187
 C        -0.139102        -0.266656        -0.245247
 C         1.376682         0.217690         0.170090
 C         1.814199         0.279803         1.667577
 C         3.493510         0.211230         1.319098
 C         3.274132         0.417560        -0.149367
 C         3.891237         0.793585        -1.592764
 O         2.588517         1.485483        -1.860006
 C         2.161795         1.431830        -0.399917
 O         2.343613        -0.749695        -0.371330
 H        -0.200516        -1.274216         0.194431
 H        -1.009339         0.458595         0.118754
 H         0.036857        -0.321539        -1.325805
 H         1.485984         1.203806         2.319876
 H         1.433903        -0.709049         2.178144
 H         4.123313         0.984043         1.908703
 H         3.616790        -0.868743         1.574387
 H         4.708057         1.430825        -1.703809
 H         3.938673        -0.070666        -2.283834
 H         2.037038         2.459299        -0.019367
