19
Iteration:  3944charge 0 multiplicity 1
 C        -0.067613        -0.146369        -0.149141
 C         1.306315         0.077517         0.057774
 C         1.905802         0.290860         1.605762
 C         3.439850         0.342466         1.337302
 C         3.313557         0.339776        -0.187985
 C         3.892885         0.827080        -1.400561
 O         2.569612         1.473086        -1.886035
 C         2.170018         1.273383        -0.421319
 O         2.275092        -0.763136        -0.441804
 H        -0.370668        -1.224655         0.086282
 H        -0.706680         0.544591         0.439377
 H        -0.212333        -0.095224        -1.273948
 H         1.349742         1.261301         1.937456
 H         1.525602        -0.467909         2.211720
 H         3.906850         1.282624         1.633355
 H         4.019418        -0.525744         1.765133
 H         4.656894         1.614616        -1.210746
 H         4.299728         0.125272        -2.087443
 H         2.037030         2.144812         0.129840
