19
Iteration:  4933
 C        -0.154108        -0.188536        -0.092513
 C         1.279524         0.119186         0.164143
 C         1.973559         0.213868         1.656653
 C         3.476086         0.290513         1.236377
 C         3.242367         0.310053        -0.169775
 C         3.931863         0.934838        -1.418163
 O         2.659261         1.487247        -1.800734
 C         2.097111         1.335835        -0.493908
 O         2.281247        -0.816313        -0.547191
 H        -0.680529        -0.757579         0.598665
 H        -0.592332         0.841291        -0.119287
 H        -0.313675        -0.554870        -1.091554
 H         1.531508         1.133785         2.098516
 H         1.500180        -0.554897         2.233008
 H         3.817233         1.248937         1.522697
 H         4.226791        -0.416013         1.663650
 H         4.685926         1.809464        -1.278505
 H         4.230182         0.149888        -2.134811
 H         1.942925         2.247401        -0.030866
