19
Iteration:   101
 C        -0.162899        -0.210172        -0.039350
 C         1.363425         0.026702         0.028917
 C         2.057769        -0.780945         1.223561
 C         3.619997        -0.491351         0.833125
 C         3.330447         0.498011        -0.223892
 C         3.796493         1.595684        -1.186226
 O         2.334247         2.059538        -1.167395
 C         2.169732         1.362461         0.098536
 O         2.299551        -0.424820        -1.072350
 H        -0.414011        -1.202147        -0.251195
 H        -0.421090         0.119079         0.994917
 H        -0.590135         0.523552        -0.787383
 H         1.937302        -0.190916         2.178535
 H         1.831386        -1.777825         1.275158
 H         4.073280        -0.034182         1.780390
 H         4.156701        -1.345734         0.538659
 H         4.518510         2.418563        -0.961451
 H         4.104131         1.291215        -2.128702
 H         2.105499         2.146499         0.870694
