19
Iteration:  1012charge 0 multiplicity 1
 C        -0.129442        -0.166422        -0.094518
 C         1.303834        -0.057814         0.051167
 C         2.076190        -0.553339         1.346218
 C         3.634517        -0.281065         0.914818
 C         3.268018         0.415726        -0.334934
 C         3.716791         1.399072        -1.238254
 O         2.447632         2.090629        -1.233782
 C         2.147529         1.326467         0.110709
 O         2.335653        -0.495870        -1.061611
 H        -0.449518        -1.139234         0.268950
 H        -0.635325         0.680969         0.450981
 H        -0.477243        -0.061651        -1.120745
 H         1.681506         0.079867         2.179946
 H         1.886020        -1.711041         1.604487
 H         4.186158         0.333772         1.614693
 H         4.099176        -1.291472         1.145356
 H         4.611912         1.901007        -0.798049
 H         4.007651         0.913818        -2.226719
 H         1.895467         1.896447         1.029363
