19
Iteration:  3999charge 0 multiplicity 1
 C        -0.046235        -0.150623        -0.079033
 C         1.325150         0.246486         0.046592
 C         1.850571         0.087701         1.635232
 C         3.387867         0.331370         1.422152
 C         3.293979         0.483952        -0.098665
 C         3.891089         0.787993        -1.549115
 O         2.631276         1.270772        -1.871967
 C         2.134592         1.481741        -0.526252
 O         2.361742        -0.726443        -0.472775
 H        -0.223712        -1.213890        -0.407468
 H        -0.696100        -0.104886         0.851524
 H        -0.551265         0.607382        -0.754529
 H         1.359045         0.966622         2.288588
 H         1.388724        -0.824297         1.889755
 H         3.658452         1.251846         1.933530
 H         4.050209        -0.520758         1.781485
 H         4.616088         1.611485        -1.503183
 H         4.111444        -0.107684        -2.050669
 H         1.913694         2.478089        -0.237866
