19
Iteration:  3595charge 0 multiplicity 1
 C        -0.132975        -0.122598        -0.186078
 C         1.359955         0.036443         0.097325
 C         1.971634         0.054406         1.599258
 C         3.491440         0.216226         1.327007
 C         3.237686         0.354866        -0.221934
 C         3.880684         0.959206        -1.486943
 O         2.591058         1.619159        -1.772720
 C         2.097141         1.343207        -0.267813
 O         2.306637        -0.756923        -0.573819
 H        -0.593912        -0.147325         0.799914
 H        -0.555008         0.636631        -0.842392
 H        -0.374931        -1.123499        -0.708575
 H         1.574542         1.053627         2.225475
 H         1.740297        -0.814495         2.158916
 H         3.949659         1.153685         1.833611
 H         3.885018        -0.828183         1.552860
 H         4.732294         1.617889        -1.235042
 H         4.193448         0.308861        -2.305862
 H         1.771395         2.327032         0.222689
