19
Iteration:  2424charge 0 multiplicity 1
 C        -0.086823        -0.176179        -0.088383
 C         1.356548        -0.054621         0.057845
 C         2.010004        -0.409508         1.357820
 C         3.577238        -0.282212         0.989152
 C         3.294812         0.350479        -0.331540
 C         3.747535         1.397243        -1.289027
 O         2.469730         1.996281        -1.294097
 C         2.159723         1.385296        -0.047988
 O         2.269317        -0.584875        -0.925413
 H        -0.601284         0.562421        -0.688385
 H        -0.449232        -1.120268        -0.556111
 H        -0.473753        -0.035563         0.942463
 H         1.883373         0.283003         2.311745
 H         1.842389        -1.516550         1.658745
 H         4.150899         0.548506         1.596671
 H         4.100915        -1.256250         1.196360
 H         4.337353         2.105220        -0.712964
 H         4.099091         1.331761        -2.347953
 H         2.122549         2.086874         0.822071
