19
Iteration:  2457
 C        -0.157097        -0.123952        -0.061989
 C         1.370556         0.013836         0.140887
 C         1.993166        -0.547628         1.411379
 C         3.585490        -0.345627         1.006718
 C         3.309183         0.472721        -0.214352
 C         3.792362         1.422868        -1.345204
 O         2.458109         1.900079        -1.413892
 C         2.075960         1.405934        -0.095326
 O         2.339804        -0.480397        -0.906515
 H        -0.521858         0.827641        -0.373232
 H        -0.367967        -0.986763        -0.705191
 H        -0.571109        -0.510692         0.902366
 H         1.774834        -0.285039         2.562751
 H         2.030405        -1.690135         1.346359
 H         4.030493         0.293536         1.844637
 H         3.993211        -1.357863         0.761920
 H         4.455387         2.262377        -1.158294
 H         4.286630         0.953911        -2.245227
 H         2.033382         2.306335         0.573614
