19
Iteration:  3044
 C        -0.043880        -0.223080        -0.113632
 C         1.393833         0.096032         0.041674
 C         1.981302        -0.247056         1.504465
 C         3.552465        -0.209790         1.164231
 C         3.282959         0.333748        -0.256965
 C         3.823884         1.198939        -1.348140
 O         2.478123         1.914010        -1.515382
 C         2.102762         1.408823        -0.162220
 O         2.241189        -0.592370        -0.800715
 H        -0.675414         0.346036         0.641212
 H        -0.516811         0.119136        -1.095472
 H        -0.169055        -1.371038        -0.134956
 H         1.736551         0.600005         2.214726
 H         1.720804        -1.330805         1.859324
 H         4.074167         0.623636         1.759963
 H         4.206452        -1.125380         1.221935
 H         4.473633         2.017698        -1.202412
 H         4.099372         0.612689        -2.259259
 H         1.967304         2.168964         0.587577
