19
Iteration:  3638
 C        -0.099365        -0.287876        -0.205707
 C         1.358875         0.158752         0.140291
 C         1.886798         0.120990         1.624059
 C         3.439371         0.113615         1.321324
 C         3.327185         0.385287        -0.172404
 C         3.852416         0.855073        -1.620884
 O         2.595434         1.682210        -1.735929
 C         2.169308         1.446251        -0.379708
 O         2.258951        -0.727735        -0.491852
 H        -0.251426        -1.065215         0.515296
 H        -0.727599         0.515363         0.103234
 H        -0.176593        -0.519344        -1.294250
 H         1.373058         0.956918         2.275355
 H         1.705997        -0.818411         2.050149
 H         3.956948         0.999717         1.818363
 H         3.883572        -0.888396         1.619265
 H         4.614723         1.602565        -1.455749
 H         4.168750         0.179957        -2.332758
 H         2.117018         2.348703         0.350879
