19
Iteration:  1061
 C        -0.134458        -0.275350        -0.117839
 C         1.342734         0.076435         0.116851
 C         2.039809        -0.706264         1.303252
 C         3.579907        -0.361299         0.959089
 C         3.287178         0.467823        -0.250464
 C         3.770455         1.377529        -1.313735
 O         2.430313         2.007945        -1.301755
 C         2.161109         1.475693         0.076466
 O         2.308329        -0.393368        -0.936803
 H        -0.466596        -1.297901         0.141046
 H        -0.572176         0.449344         0.549157
 H        -0.492338         0.025425        -1.116692
 H         1.589938        -0.281128         2.224361
 H         1.807458        -1.736163         1.231910
 H         4.131469         0.190750         1.765835
 H         4.237286        -1.187896         0.738167
 H         4.580767         2.010605        -0.979520
 H         3.923173         1.120278        -2.327866
 H         2.426361         2.328911         0.800265
