19
Iteration:   793charge 0 multiplicity 1
 C        -0.063332        -0.069825        -0.120499
 C         1.453584        -0.050306         0.004957
 C         2.141295        -0.545699         1.345191
 C         3.625083        -0.246322         1.036987
 C         3.183432         0.349382        -0.287739
 C         3.707834         1.403127        -1.260445
 O         2.432646         2.038391        -1.173833
 C         2.079411         1.294532         0.081241
 O         2.249263        -0.535828        -1.120462
 H        -0.403002        -0.890679         0.463000
 H        -0.653165         0.750459         0.184718
 H        -0.305407        -0.370071        -1.129962
 H         1.782885         0.049789         2.205333
 H         2.047504        -1.594933         1.452781
 H         4.079347         0.541616         1.676437
 H         4.166951        -1.143044         0.905661
 H         4.495102         2.142550        -0.904375
 H         3.835944         1.042477        -2.334406
 H         2.059615         1.914977         1.081535
