19
Iteration:   484
 C        -0.099620        -0.186431        -0.178423
 C         1.368062        -0.004350         0.121358
 C         1.996153        -0.586415         1.401543
 C         3.618768        -0.370267         0.940435
 C         3.272060         0.422230        -0.303316
 C         3.744980         1.456180        -1.404620
 O         2.417136         2.063083        -1.243783
 C         2.143969         1.386120         0.055404
 O         2.331899        -0.504249        -0.899237
 H        -0.452206        -1.147294        -0.657447
 H        -0.730188        -0.147003         0.762890
 H        -0.425902         0.651114        -0.832386
 H         1.838499        -0.110992         2.377711
 H         1.714820        -1.695068         1.449509
 H         4.234424         0.190672         1.652735
 H         4.195575        -1.384770         0.876197
 H         4.473460         2.159988        -0.973077
 H         3.981127         1.156832        -2.412089
 H         2.198883         2.088829         0.949153
