19
Iteration:  2766charge 0 multiplicity 1
 C        -0.134026        -0.171487        -0.123689
 C         1.420736         0.008643         0.125659
 C         2.082546        -0.450039         1.378091
 C         3.549359        -0.239834         1.004419
 C         3.241977         0.369416        -0.236048
 C         3.771284         1.309518        -1.370455
 O         2.478894         2.035793        -1.303728
 C         2.082752         1.351097        -0.020091
 O         2.304186        -0.548772        -0.924902
 H        -0.706678         0.808339         0.067600
 H        -0.275969        -0.562476        -1.210173
 H        -0.580950        -1.062263         0.352869
 H         1.807648         0.012867         2.330392
 H         1.892667        -1.462251         1.612608
 H         4.059291         0.545593         1.556518
 H         4.163218        -1.189671         0.996923
 H         4.533582         2.084517        -0.988342
 H         4.001392         0.777539        -2.320571
 H         1.948340         2.232110         0.658735
