19
Iteration:  1939charge 0 multiplicity 1
 C        -0.094395        -0.289067        -0.171076
 C         1.370479         0.107890         0.150664
 C         2.086334        -0.592173         1.429101
 C         3.539678        -0.423875         1.032044
 C         3.224511         0.489802        -0.296273
 C         3.754005         1.369499        -1.409067
 O         2.456762         2.044031        -1.302946
 C         2.143845         1.465037         0.024785
 O         2.301890        -0.449591        -0.908968
 H        -0.198841        -1.375010        -0.188412
 H        -0.870134         0.232293         0.349510
 H        -0.204542         0.191380        -1.150392
 H         1.885768        -0.092004         2.368548
 H         1.961479        -1.633258         1.496391
 H         4.149041         0.122275         1.817363
 H         3.880141        -1.485496         0.726506
 H         4.571269         2.112240        -1.096795
 H         3.897100         0.763544        -2.305222
 H         2.041889         2.241440         0.746411
