19
Iteration:  4686
 C        -0.134906        -0.048041        -0.125173
 C         1.341356         0.192929         0.121825
 C         1.863674         0.179494         1.553238
 C         3.447937         0.257475         1.289912
 C         3.329455         0.320966        -0.202326
 C         3.909029         0.946615        -1.429172
 O         2.497651         1.412560        -1.864912
 C         2.177420         1.271026        -0.454890
 O         2.383980        -0.832521        -0.378198
 H        -0.579474        -0.759360         0.481962
 H        -0.627906         0.941190         0.051883
 H        -0.447001        -0.212987        -1.166896
 H         1.648089         1.097055         2.244414
 H         1.670745        -0.858652         1.877840
 H         3.671779         1.210522         1.690775
 H         3.878923        -0.633803         1.781417
 H         4.454078         1.931130        -1.362296
 H         4.455536         0.327723        -2.182869
 H         2.114613         2.299681        -0.076508
