19
Iteration:   516
 C        -0.077806        -0.231977        -0.076471
 C         1.372577         0.103556         0.120773
 C         2.035719        -0.670125         1.316320
 C         3.645780        -0.374444         0.974868
 C         3.261300         0.490384        -0.236137
 C         3.778439         1.311979        -1.306396
 O         2.445323         2.002398        -1.293502
 C         2.054107         1.399092         0.043598
 O         2.249137        -0.343792        -1.007685
 H        -0.125713        -1.269004         0.159155
 H        -0.650138         0.448214         0.500200
 H        -0.198530         0.004107        -1.111698
 H         1.905699        -0.416621         2.369475
 H         1.869943        -1.763921         1.121516
 H         3.927753         0.354973         1.716498
 H         4.355464        -1.280917         0.835053
 H         4.467853         2.141368        -1.023158
 H         4.059859         0.947763        -2.277175
 H         1.975855         2.068410         0.980983
