19
Iteration:  1172charge 0 multiplicity 1
 C        -0.135693        -0.211881        -0.042185
 C         1.349663         0.094283         0.062807
 C         2.034679        -0.696816         1.301606
 C         3.588770        -0.370990         1.006872
 C         3.308190         0.464674        -0.168905
 C         3.749715         1.439075        -1.389548
 O         2.477540         2.005259        -1.272535
 C         2.093828         1.417780        -0.013860
 O         2.325968        -0.445208        -0.933876
 H        -0.277367        -1.297309        -0.033563
 H        -0.658628         0.303161         0.785709
 H        -0.500828         0.230762        -0.964389
 H         1.397794        -0.385244         2.133947
 H         1.868078        -1.708665         1.082441
 H         4.240385         0.202958         1.693751
 H         4.216429        -1.267291         0.658452
 H         4.402866         2.249578        -1.138004
 H         4.138211         0.986109        -2.317783
 H         1.994907         2.201835         0.816410
