19
Iteration:   583charge 0 multiplicity 1
 C        -0.086701        -0.234594        -0.226794
 C         1.384415        -0.040011         0.073480
 C         2.144943        -0.493373         1.467977
 C         3.616768        -0.362355         0.977386
 C         3.226320         0.414008        -0.333156
 C         3.711567         1.368904        -1.335114
 O         2.392872         2.124334        -1.185535
 C         2.140392         1.313032         0.116182
 O         2.255655        -0.465343        -1.030743
 H        -0.503354        -1.112768         0.241856
 H        -0.599382         0.620201         0.148745
 H        -0.339625        -0.158826        -1.259526
 H         1.854233         0.269539         2.172275
 H         1.918492        -1.503410         1.681682
 H         4.031614         0.223796         1.749740
 H         4.171574        -1.292030         0.652111
 H         4.603140         1.975250        -0.985324
 H         3.960255         0.951489        -2.285880
 H         2.414795         2.004008         0.958389
