19
Iteration:  1525charge 0 multiplicity 1
 C        -0.048499        -0.276496        -0.152382
 C         1.330918         0.035718         0.078139
 C         1.998797        -0.520468         1.380744
 C         3.591611        -0.351307         1.022265
 C         3.305320         0.325825        -0.379201
 C         3.630110         1.415833        -1.379791
 O         2.504016         2.207112        -1.217582
 C         2.179002         1.402986         0.071424
 O         2.280939        -0.547510        -0.926989
 H         0.006979        -1.233060        -0.565529
 H        -0.708695        -0.297661         0.668170
 H        -0.509443         0.298684        -0.928449
 H         2.039153         0.077853         2.299887
 H         1.628837        -1.532073         1.661789
 H         4.103214         0.362672         1.601860
 H         4.105221        -1.243963         1.093593
 H         4.656289         1.866274        -1.351064
 H         3.622037         0.859414        -2.342818
 H         2.195305         2.017214         0.975293
