19
Iteration:  2722charge 0 multiplicity 1
 C        -0.080777        -0.157904         0.001355
 C         1.326807         0.074283         0.104971
 C         2.023214        -0.533585         1.319728
 C         3.569625        -0.257058         1.040509
 C         3.288969         0.365443        -0.342164
 C         3.802630         1.469693        -1.294963
 O         2.464025         1.954169        -1.378575
 C         2.114981         1.386175        -0.066078
 O         2.316061        -0.581876        -0.926573
 H        -0.728796         0.733573        -0.328536
 H        -0.379159        -0.926862        -0.759328
 H        -0.560953        -0.590954         0.905922
 H         1.533312        -0.079949         2.201022
 H         1.758784        -1.545659         1.462717
 H         3.960444         0.444644         1.771489
 H         4.152411        -1.234860         1.148787
 H         4.634927         2.123254        -0.752442
 H         4.010116         1.036407        -2.287095
 H         2.141713         2.023291         0.843420
