19
Iteration:  2478charge 0 multiplicity 1
 C        -0.095427        -0.181479        -0.142962
 C         1.357898         0.111644         0.114945
 C         2.071190        -0.590583         1.349239
 C         3.612202        -0.322925         1.107826
 C         3.254019         0.493918        -0.201803
 C         3.770929         1.246193        -1.363176
 O         2.377788         1.948200        -1.418371
 C         2.161492         1.429797         0.011683
 O         2.298313        -0.439088        -0.894890
 H        -0.548359         0.740277        -0.487351
 H        -0.202504        -0.996093        -0.901587
 H        -0.606836        -0.577751         0.769291
 H         1.978333        -0.071606         2.359908
 H         1.708318        -1.676522         1.383579
 H         4.051859         0.454093         1.802720
 H         4.126708        -1.218058         0.869845
 H         4.625517         1.930305        -1.227137
 H         3.987342         0.931528        -2.397354
 H         2.018034         2.207242         0.823535
