19
Iteration:  1316
 C        -0.157649        -0.173994        -0.092677
 C         1.360840        -0.000311         0.104405
 C         2.115285        -0.682067         1.350704
 C         3.567051        -0.328508         0.968180
 C         3.269977         0.422619        -0.333322
 C         3.840202         1.486056        -1.254799
 O         2.456656         2.132886        -1.262524
 C         2.125337         1.354686        -0.073255
 O         2.231714        -0.614868        -0.955252
 H        -0.465946        -1.044723        -0.656522
 H        -0.536757        -0.136081         0.958072
 H        -0.600233         0.741765        -0.501132
 H         1.736598         0.062668         2.088095
 H         1.715876        -1.719128         1.666559
 H         4.001141         0.389646         1.708789
 H         4.459666        -1.088005         0.875119
 H         4.529871         2.103111        -0.680390
 H         4.369861         1.483778        -2.292694
 H         1.867765         2.076954         0.774750
