19
Iteration:  2907charge 0 multiplicity 1
 C        -0.193208        -0.268858        -0.154839
 C         1.368127         0.070478         0.098218
 C         2.012221        -0.368034         1.479493
 C         3.552211        -0.241214         1.093419
 C         3.359214         0.467400        -0.181420
 C         3.794986         1.276116        -1.393114
 O         2.493546         1.894395        -1.446441
 C         2.137852         1.425371        -0.059927
 O         2.275189        -0.497477        -0.900864
 H        -0.142461        -1.297031        -0.627137
 H        -0.562753        -0.505547         0.877292
 H        -0.541433         0.618692        -0.727596
 H         1.638091         0.176476         2.360754
 H         1.667921        -1.345068         1.651050
 H         4.135550         0.298655         1.797634
 H         4.061953        -1.212863         0.839182
 H         4.628112         1.898331        -1.279182
 H         3.900172         0.601001        -2.231257
 H         2.085190         2.190004         0.802649
