19
Iteration:  2938
 C        -0.032046        -0.215051        -0.306641
 C         1.420327         0.131918         0.155542
 C         2.029420        -0.261353         1.606378
 C         3.599325        -0.266550         1.104866
 C         3.311608         0.346476        -0.285971
 C         3.708735         1.209182        -1.417920
 O         2.429570         2.016535        -1.411669
 C         2.093447         1.368519        -0.078306
 O         2.269470        -0.621459        -0.790355
 H        -0.123007        -0.484667        -1.375266
 H        -0.417004        -1.009975         0.301414
 H        -0.654653         0.720861        -0.364000
 H         1.626249         0.214611         2.559964
 H         1.730007        -1.297993         1.567225
 H         4.325258         0.383496         1.616587
 H         3.987924        -1.337744         0.932095
 H         4.574117         1.930211        -1.160222
 H         3.759059         0.780345        -2.440763
 H         1.984097         2.126117         0.758135
