19
Iteration:  4774
 C        -0.090217        -0.200575        -0.102106
 C         1.278738         0.233473         0.133469
 C         1.905054         0.186422         1.685815
 C         3.413600         0.176368         1.363098
 C         3.226329         0.390796        -0.205125
 C         3.892035         0.828049        -1.488347
 O         2.659014         1.418284        -1.909652
 C         2.089176         1.424723        -0.394883
 O         2.358491        -0.660168        -0.549929
 H        -0.188140        -0.994386         0.617251
 H        -0.833153         0.611081        -0.056341
 H        -0.118691        -0.728995        -1.096722
 H         1.713041         1.189893         2.267106
 H         1.462567        -0.716016         2.230063
 H         4.022797         0.861365         1.967690
 H         3.728242        -0.826796         1.741115
 H         4.710672         1.570116        -1.458353
 H         4.229413        -0.013612        -2.151035
 H         1.968471         2.530857        -0.127018
