19
Iteration:  2626
 C        -0.136666        -0.158249        -0.122415
 C         1.328631        -0.053993         0.016154
 C         2.086371        -0.506066         1.408494
 C         3.583777        -0.241305         1.059502
 C         3.313837         0.323971        -0.355164
 C         3.804727         1.395064        -1.355854
 O         2.399888         2.055193        -1.239499
 C         2.108441         1.357265        -0.000996
 O         2.335149        -0.540450        -0.928979
 H        -0.398449        -0.419503        -1.171068
 H        -0.678516        -0.755353         0.659341
 H        -0.473171         0.831707        -0.038895
 H         1.691154        -0.012469         2.359655
 H         1.925962        -1.573941         1.690535
 H         4.252928         0.482749         1.607504
 H         4.181133        -1.212942         0.977933
 H         4.586857         2.037213        -1.160981
 H         3.698991         1.049532        -2.371782
 H         1.930638         2.039707         0.838401
