19
Iteration:  4495
 C        -0.039878        -0.191079        -0.208646
 C         1.368654         0.132717         0.145967
 C         1.909633         0.287039         1.577741
 C         3.462761         0.326937         1.256445
 C         3.189530         0.321868        -0.198343
 C         3.854705         0.776795        -1.466778
 O         2.590187         1.571923        -1.785076
 C         2.104994         1.321679        -0.455142
 O         2.334450        -0.810245        -0.392246
 H        -0.577609        -0.933662         0.438194
 H        -0.530254         0.714314        -0.155557
 H        -0.292113        -0.415463        -1.261259
 H         1.651489         1.098766         2.185692
 H         1.622906        -0.624078         2.202390
 H         3.962161         1.168879         1.771743
 H         3.975586        -0.555103         1.629214
 H         4.751309         1.421485        -1.214373
 H         3.988500         0.056673        -2.276665
 H         2.000519         2.249442         0.193496
