19
Iteration:  4796charge 0 multiplicity 1
 C        -0.154014        -0.136143        -0.030213
 C         1.334636         0.062609         0.025693
 C         1.867686         0.269458         1.483056
 C         3.477721         0.215422         1.276580
 C         3.301457         0.432365        -0.155818
 C         3.948606         0.875576        -1.369204
 O         2.563447         1.450432        -1.802519
 C         2.151980         1.324427        -0.446043
 O         2.324659        -0.794003        -0.480594
 H        -0.587001        -1.070184         0.329023
 H        -0.518398         0.815119         0.405719
 H        -0.449385        -0.032847        -1.129624
 H         1.520784         1.306520         1.942502
 H         1.502992        -0.627390         2.128576
 H         3.970931         1.023553         1.851749
 H         3.911070        -0.698910         1.765533
 H         4.610251         1.723674        -1.444718
 H         4.214480         0.189911        -2.189441
 H         2.031087         2.415047        -0.049689
