19
Iteration:   831charge 0 multiplicity 1
 C        -0.098975        -0.267531        -0.176595
 C         1.277160         0.115565         0.145338
 C         2.051864        -0.641095         1.344975
 C         3.549035        -0.400395         0.951751
 C         3.315496         0.483667        -0.255311
 C         3.725378         1.462179        -1.447939
 O         2.435231         2.074055        -1.247145
 C         2.182314         1.480198         0.109224
 O         2.334162        -0.522941        -0.847966
 H        -0.299988        -1.174497         0.498841
 H        -0.843833         0.597813        -0.040349
 H        -0.031718        -0.601707        -1.250505
 H         1.602138        -0.319430         2.302747
 H         1.841741        -1.761538         1.335025
 H         4.353294        -0.063727         1.613679
 H         3.871048        -1.410281         0.515854
 H         4.689006         2.109957        -1.442387
 H         3.692336         1.016162        -2.465877
 H         2.333007         2.115542         0.900203
