19
Iteration:  1458charge 0 multiplicity 1
 C        -0.112328        -0.111125        -0.030620
 C         1.406635         0.020590         0.055645
 C         2.085714        -0.578059         1.300561
 C         3.614470        -0.352736         1.033675
 C         3.285256         0.411730        -0.276585
 C         3.771498         1.485209        -1.224153
 O         2.338988         2.053173        -1.289881
 C         2.147789         1.335700        -0.091845
 O         2.313975        -0.579998        -0.976022
 H        -0.490687        -1.104294        -0.016689
 H        -0.583643         0.418902         0.785289
 H        -0.565379         0.341775        -0.890922
 H         1.450573        -0.218780         2.133500
 H         1.883506        -1.686897         1.274387
 H         4.239728         0.119154         1.727898
 H         4.006215        -1.339111         0.825520
 H         4.549414         2.132439        -0.732199
 H         4.128756         1.236628        -2.274609
 H         2.092064         2.099179         0.711272
