19
Iteration:  2912
 C        -0.165858        -0.251917        -0.191217
 C         1.389540         0.075332         0.141932
 C         2.060066        -0.390732         1.453570
 C         3.533717        -0.288512         1.090717
 C         3.303240         0.496542        -0.176433
 C         3.778130         1.227440        -1.394965
 O         2.498815         1.909042        -1.429912
 C         2.129157         1.452103        -0.071380
 O         2.282911        -0.511318        -0.836206
 H        -0.204660        -1.095559        -0.898485
 H        -0.610433        -0.710537         0.719047
 H        -0.641041         0.518491        -0.792300
 H         1.663005         0.411322         2.126220
 H         1.723272        -1.417226         1.916384
 H         4.181126         0.430744         1.701768
 H         4.053772        -1.167123         0.814324
 H         4.665422         1.979350        -1.294051
 H         3.707389         0.735482        -2.420570
 H         2.166928         2.213493         0.655140
