19
Iteration:  4086charge 0 multiplicity 1
 C        -0.118425        -0.228781        -0.142600
 C         1.354099         0.191684         0.123505
 C         1.887783         0.163501         1.599485
 C         3.378899         0.297018         1.379743
 C         3.293831         0.428501        -0.167270
 C         3.952337         0.755019        -1.543682
 O         2.560903         1.382358        -1.835055
 C         2.135407         1.400087        -0.409902
 O         2.355281        -0.637378        -0.481858
 H        -0.483217        -1.048504         0.511587
 H        -0.642837         0.760247         0.093884
 H        -0.251908        -0.471198        -1.229818
 H         1.493892         1.139159         2.191865
 H         1.636605        -0.698400         2.215470
 H         3.778331         1.179725         1.852420
 H         3.874688        -0.680417         1.738543
 H         4.733619         1.506054        -1.657269
 H         4.228458        -0.082621        -2.113081
 H         1.919484         2.472001        -0.115590
