19
Iteration:  1189charge 0 multiplicity 1
 C        -0.062646        -0.164330        -0.063182
 C         1.377437         0.015225         0.050271
 C         2.049186        -0.625144         1.293635
 C         3.555051        -0.410533         1.036045
 C         3.288671         0.392950        -0.330488
 C         3.789639         1.457232        -1.232536
 O         2.359988         2.118844        -1.354612
 C         2.141749         1.418358        -0.015091
 O         2.327661        -0.523394        -0.921962
 H        -0.321345        -1.178477         0.274896
 H        -0.510003         0.452505         0.720464
 H        -0.587988         0.040345        -1.010398
 H         1.972149        -0.372701         2.385837
 H         1.705047        -1.700697         1.173489
 H         3.939227         0.109200         1.914540
 H         4.057957        -1.312017         0.806357
 H         4.553539         2.195116        -0.741475
 H         3.988957         1.193954        -2.255780
 H         2.076755         2.150757         0.778835
