19
Iteration:  2886
 C        -0.080966        -0.199129        -0.025238
 C         1.372571         0.106822         0.070811
 C         2.016411        -0.468010         1.369181
 C         3.497957        -0.255179         1.161227
 C         3.243268         0.355007        -0.279420
 C         3.852282         1.288359        -1.363476
 O         2.471968         1.950465        -1.429927
 C         2.102651         1.430461        -0.167639
 O         2.318569        -0.526305        -0.866372
 H        -0.164772        -1.366557         0.081127
 H        -0.569937         0.151267         0.933597
 H        -0.448931         0.195627        -0.995372
 H         1.578030         0.121541         2.171010
 H         1.740339        -1.467538         1.576472
 H         3.944455         0.509050         1.729629
 H         4.104525        -1.177378         1.184669
 H         4.482760         1.986287        -0.912964
 H         4.140050         1.024483        -2.360667
 H         2.042204         2.239938         0.633113
