19
Iteration:  2686charge 0 multiplicity 1
 C        -0.093583        -0.277754        -0.174068
 C         1.365115         0.118319         0.112625
 C         2.075181        -0.548669         1.427499
 C         3.627721        -0.368831         1.049592
 C         3.243529         0.448063        -0.207647
 C         3.743943         1.368664        -1.393715
 O         2.460930         2.010216        -1.366848
 C         2.101956         1.398790         0.041949
 O         2.257007        -0.452973        -0.889403
 H        -0.241901         0.356972        -1.090952
 H        -0.101267        -1.284726        -0.542463
 H        -0.842039         0.122971         0.613616
 H         1.923694         0.147855         2.206157
 H         1.786186        -1.572284         1.633307
 H         4.197553         0.061673         1.829172
 H         4.059305        -1.284512         0.708114
 H         4.699595         1.914869        -1.460689
 H         3.743972         0.793432        -2.310300
 H         2.064793         2.274932         0.737110
