19
Iteration:  1889charge 0 multiplicity 1
 C        -0.187851        -0.114385        -0.054751
 C         1.416658        -0.007362         0.067448
 C         2.061505        -0.600215         1.392354
 C         3.534821        -0.273142         1.107050
 C         3.227081         0.371047        -0.353012
 C         3.798511         1.464787        -1.282376
 O         2.427833         2.121001        -1.323927
 C         2.206819         1.300969        -0.125550
 O         2.329119        -0.592971        -0.978810
 H        -0.329745        -1.167118        -0.511107
 H        -0.685665        -0.327280         0.968805
 H        -0.738050         0.714759        -0.506144
 H         1.854360        -0.124578         2.393557
 H         1.809134        -1.734003         1.402423
 H         3.830937         0.518341         1.774154
 H         4.213503        -1.047184         1.032177
 H         4.510590         2.067110        -0.775979
 H         4.013911         1.109569        -2.291685
 H         2.266910         1.948140         0.826791
