19
Iteration:  4977
 C        -0.118613        -0.138063        -0.049340
 C         1.388845         0.213465         0.054201
 C         1.845806         0.060299         1.528951
 C         3.420756         0.215735         1.407768
 C         3.333818         0.469601        -0.144247
 C         3.936951         0.809829        -1.500033
 O         2.508333         1.345527        -1.829729
 C         2.109926         1.458438        -0.422813
 O         2.393794        -0.639045        -0.533054
 H        -0.401854        -0.560800         0.833370
 H        -0.765133         0.734034        -0.244380
 H        -0.159293        -0.870668        -0.847217
 H         1.476446         0.709416         2.386528
 H         1.564001        -0.899411         1.928022
 H         3.695913         1.161906         1.771794
 H         4.113797        -0.554394         1.830665
 H         4.674723         1.631880        -1.620824
 H         3.911634        -0.088586        -2.095458
 H         2.000135         2.443375        -0.145917
