19
Iteration:  3316charge 0 multiplicity 1
 C        -0.128592        -0.267744        -0.086563
 C         1.360920         0.126782         0.120848
 C         1.920806        -0.049759         1.554298
 C         3.512302        -0.010994         1.200334
 C         3.250924         0.403178        -0.261995
 C         3.926918         1.097390        -1.412217
 O         2.546873         1.659893        -1.664967
 C         2.145439         1.469570        -0.191135
 O         2.285699        -0.668083        -0.718876
 H        -0.693772        -0.365841         0.839609
 H        -0.663334         0.538197        -0.551085
 H        -0.190697        -1.209855        -0.672426
 H         1.639984         0.783526         2.175814
 H         1.516693        -1.182252         1.768957
 H         4.197090         0.599404         1.773268
 H         3.854980        -1.020277         1.330717
 H         4.627987         1.984182        -1.207937
 H         4.117573         0.431307        -2.350374
 H         1.959185         2.442861         0.439473
