19
Iteration:   897charge 0 multiplicity 1
 C        -0.076964        -0.157229        -0.036902
 C         1.387432         0.041819        -0.002996
 C         2.021973        -0.585851         1.289462
 C         3.603926        -0.340984         0.988389
 C         3.255709         0.371066        -0.368142
 C         3.710646         1.543597        -1.310187
 O         2.469544         2.172811        -1.253632
 C         2.105095         1.302261        -0.022767
 O         2.309424        -0.678284        -0.875126
 H        -0.380894        -1.235545        -0.218363
 H        -0.520817         0.214068         0.928933
 H        -0.645861         0.457993        -0.772222
 H         1.686587        -0.020625         2.179356
 H         1.787658        -1.622154         1.499804
 H         4.137365         0.255127         1.754846
 H         4.118891        -1.319695         0.953433
 H         4.590597         2.039208        -0.686272
 H         4.114204         1.388984        -2.326366
 H         2.101246         1.939211         0.791903
