19
Iteration:  2047
 C        -0.119571        -0.215589        -0.090413
 C         1.388183         0.084169         0.137831
 C         2.075901        -0.656926         1.320196
 C         3.552189        -0.292623         1.048967
 C         3.319308         0.485784        -0.216853
 C         3.826378         1.363290        -1.329760
 O         2.407622         1.957089        -1.389148
 C         2.149555         1.439626         0.005870
 O         2.199507        -0.437657        -0.971333
 H        -0.211711        -1.222785        -0.430503
 H        -0.662773        -0.289872         0.846095
 H        -0.500506         0.468407        -0.848821
 H         1.694404        -0.074033         2.279266
 H         2.006942        -1.729940         1.518698
 H         3.991470         0.261773         1.919477
 H         4.244158        -1.219990         0.956263
 H         4.629814         2.076858        -0.996831
 H         4.056763         0.811593        -2.276612
 H         2.273987         2.225379         0.776923
