19
Iteration:  4742
 C        -0.069462        -0.254774        -0.185034
 C         1.270072         0.249483         0.117130
 C         1.864019         0.140298         1.562252
 C         3.510010         0.298333         1.288527
 C         3.255546         0.402360        -0.180910
 C         3.844597         0.725400        -1.508210
 O         2.630066         1.470154        -1.764131
 C         2.219910         1.447614        -0.414790
 O         2.275692        -0.665628        -0.425575
 H        -0.477991        -0.703552         0.712948
 H        -0.864965         0.427554        -0.414435
 H         0.010199        -1.016611        -0.996060
 H         1.495464         0.947654         2.339455
 H         1.595342        -0.827286         2.142638
 H         4.019802         1.012677         1.966378
 H         3.807577        -0.708529         1.582677
 H         4.614703         1.568001        -1.577560
 H         3.910903        -0.085880        -2.283601
 H         2.213351         2.496743        -0.093293
