19
Iteration:  1841
 C        -0.099747        -0.220727        -0.260965
 C         1.411766         0.087785         0.116540
 C         2.038670        -0.544337         1.456809
 C         3.621967        -0.402649         0.994878
 C         3.308999         0.401244        -0.217550
 C         3.718691         1.327411        -1.371347
 O         2.336076         2.049680        -1.300142
 C         2.139883         1.430251         0.082178
 O         2.315371        -0.442804        -0.943173
 H        -0.084322        -1.332450        -0.437497
 H        -0.766165        -0.088121         0.586506
 H        -0.358343         0.477187        -1.114602
 H         1.951061         0.082624         2.296488
 H         1.748490        -1.495470         1.721597
 H         4.349944         0.094220         1.678677
 H         4.077281        -1.391606         0.627765
 H         4.430725         2.154891        -1.156685
 H         3.861376         0.865174        -2.345905
 H         2.225268         2.087140         0.925030
