19
Iteration:   310charge 0 multiplicity 1
 C        -0.035366        -0.251894        -0.248922
 C         1.373338         0.045398         0.132378
 C         2.056500        -0.661274         1.361150
 C         3.608069        -0.431956         1.027940
 C         3.331585         0.463226        -0.296214
 C         3.667446         1.373365        -1.446908
 O         2.430281         2.118432        -1.179118
 C         2.160426         1.437370         0.136628
 O         2.263683        -0.430204        -0.923736
 H        -0.740646        -0.985089         0.302000
 H        -0.768063         0.609048        -0.378143
 H        -0.045512        -0.647377        -1.312634
 H         2.016186        -0.064054         2.279243
 H         1.601131        -1.700621         1.509560
 H         3.966132         0.233354         1.792996
 H         4.170598        -1.450746         0.894723
 H         4.536846         2.080296        -1.279373
 H         3.680845         1.134746        -2.511509
 H         2.083504         2.200815         0.857520
