19
Iteration:  1861
 C        -0.094797        -0.138996        -0.199382
 C         1.414262        -0.007861         0.103532
 C         2.113743        -0.462687         1.360908
 C         3.607988        -0.299317         0.996881
 C         3.215366         0.382552        -0.345380
 C         3.755928         1.436831        -1.297921
 O         2.437864         1.983069        -1.230329
 C         2.102718         1.359462         0.010885
 O         2.250808        -0.565287        -0.905976
 H        -0.397783        -1.042302        -0.670158
 H        -0.748084        -0.266711         0.646251
 H        -0.453322         0.686169        -0.867572
 H         1.908049        -0.018736         2.331667
 H         1.861142        -1.510372         1.449459
 H         4.217383         0.353235         1.668791
 H         4.264104        -1.284588         0.890482
 H         4.575304         2.054508        -0.780908
 H         3.988023         1.181075        -2.361372
 H         1.927776         2.026817         0.814000
