19
Iteration:  4071
 C        -0.072284        -0.202934        -0.199274
 C         1.341648         0.129918         0.135994
 C         1.799099         0.322590         1.619357
 C         3.459683         0.264568         1.347973
 C         3.273754         0.395696        -0.183982
 C         3.816878         0.792919        -1.504291
 O         2.599522         1.462951        -1.828060
 C         2.172628         1.415184        -0.431167
 O         2.373177        -0.807730        -0.423227
 H        -0.234121        -1.230275         0.187374
 H        -0.838585         0.358698         0.208428
 H        -0.193316        -0.185206        -1.271163
 H         1.525630         1.237985         2.058739
 H         1.463626        -0.501462         2.263888
 H         3.979680         1.144730         1.709257
 H         4.075681        -0.580199         1.557913
 H         4.662104         1.551359        -1.475334
 H         3.877744        -0.017206        -2.287141
 H         2.174129         2.400767         0.145785
