19
Iteration:  1698
 C        -0.047900        -0.255205        -0.214565
 C         1.329167         0.004901         0.186168
 C         2.114987        -0.541003         1.372494
 C         3.565064        -0.403766         0.979015
 C         3.299774         0.444701        -0.264929
 C         3.729893         1.295505        -1.417169
 O         2.404954         2.085622        -1.295054
 C         2.104729         1.479081         0.067114
 O         2.282840        -0.408589        -0.882098
 H        -0.051642        -1.260007        -0.668397
 H        -0.758156        -0.314978         0.644743
 H        -0.180362         0.561349        -0.991660
 H         2.020121        -0.079812         2.308339
 H         1.798166        -1.546228         1.616633
 H         4.141238         0.103129         1.732345
 H         4.147222        -1.347386         0.861569
 H         4.502972         1.988603        -1.254170
 H         3.752672         0.838039        -2.419009
 H         2.016585         2.049823         1.001949
