19
Iteration:   686
 C        -0.077456        -0.257778        -0.175082
 C         1.382729         0.036954         0.171508
 C         2.045555        -0.519574         1.378589
 C         3.532203        -0.300057         0.938418
 C         3.192606         0.304396        -0.376868
 C         3.731489         1.443620        -1.384273
 O         2.512347         2.221470        -1.225632
 C         2.127562         1.381452         0.017884
 O         2.285360        -0.652713        -0.876274
 H        -0.001250        -0.974635        -1.033515
 H        -0.614034        -0.579781         0.766781
 H        -0.458019         0.755985        -0.506264
 H         1.932241        -0.030836         2.359178
 H         1.778191        -1.560080         1.541162
 H         4.075326         0.326837         1.688279
 H         4.102298        -1.192409         0.832643
 H         4.535295         1.905861        -0.844911
 H         4.020374         1.372182        -2.456829
 H         2.192494         1.915971         0.935263
