19
Iteration:  1392
 C        -0.066944        -0.233131        -0.277828
 C         1.360579         0.074912         0.157871
 C         2.052609        -0.652286         1.344190
 C         3.574390        -0.380354         0.930258
 C         3.255926         0.404556        -0.280119
 C         3.722239         1.322265        -1.433701
 O         2.448229         2.110998        -1.164767
 C         2.125359         1.519639         0.057995
 O         2.288966        -0.442958        -0.803713
 H        -0.049208        -1.264237         0.009007
 H        -0.767729         0.358553         0.289300
 H        -0.151495        -0.217495        -1.347318
 H         1.814679        -0.334733         2.446689
 H         1.884234        -1.802660         1.422620
 H         4.159542         0.026943         1.733940
 H         4.198401        -1.221768         0.502776
 H         4.566429         2.094724        -1.456493
 H         3.707837         0.925571        -2.558939
 H         2.094619         2.196390         0.974426
