19
Iteration:  1950
 C        -0.039116        -0.242161        -0.255683
 C         1.378686         0.013982         0.195213
 C         2.014011        -0.529315         1.464199
 C         3.573583        -0.381307         0.934056
 C         3.316070         0.371269        -0.289668
 C         3.725292         1.417867        -1.399909
 O         2.440078         2.087582        -1.293614
 C         2.164837         1.427454         0.023333
 O         2.232585        -0.458780        -0.830199
 H        -0.224996        -1.322655        -0.065152
 H        -0.746198         0.263121         0.362392
 H        -0.132309        -0.181162        -1.331111
 H         1.740512        -0.032587         2.389431
 H         1.650458        -1.524821         1.559997
 H         4.359931         0.045436         1.636619
 H         4.029468        -1.409292         0.670970
 H         4.634011         2.081855        -1.161157
 H         3.910836         1.050038        -2.421930
 H         1.958627         2.149779         0.781606
