19
Iteration:  2932
 C        -0.052467        -0.237083        -0.298350
 C         1.347915         0.096306         0.147194
 C         2.032974        -0.277349         1.585364
 C         3.614867        -0.273273         1.077290
 C         3.290818         0.346921        -0.288412
 C         3.730815         1.208821        -1.439327
 O         2.434762         2.012385        -1.406454
 C         2.104451         1.429708        -0.069882
 O         2.286914        -0.573512        -0.780398
 H        -0.020994        -0.699263        -1.299150
 H        -0.462328        -0.983410         0.457915
 H        -0.393074         0.794744        -0.384396
 H         1.855655         0.197924         2.517927
 H         1.649298        -1.338518         1.647614
 H         4.217439         0.278823         1.821306
 H         3.961992        -1.243850         0.913124
 H         4.516110         1.852209        -1.175757
 H         3.949334         0.558341        -2.305572
 H         1.891433         2.140543         0.724806
