19
Iteration:  2985
 C        -0.102733        -0.095406        -0.071237
 C         1.365616         0.057578         0.059782
 C         2.027977        -0.404838         1.448759
 C         3.557669        -0.116080         1.232703
 C         3.252338         0.376032        -0.223395
 C         3.753058         1.241088        -1.394066
 O         2.492887         1.868308        -1.464211
 C         2.099248         1.393268        -0.188467
 O         2.350033        -0.607567        -0.879659
 H        -0.568429         0.753474        -0.601501
 H        -0.204487        -1.052728        -0.697875
 H        -0.642223        -0.064408         0.879517
 H         1.596939         0.027444         2.289914
 H         1.965146        -1.444413         1.629802
 H         4.080396         0.539264         1.868805
 H         4.003112        -1.088858         1.140652
 H         4.477177         1.980187        -1.225980
 H         3.962607         0.619570        -2.236312
 H         1.954741         2.237692         0.573394
