19
Iteration:  4821
 C        -0.157629        -0.031682        -0.062884
 C         1.344866         0.144814         0.139710
 C         1.835497         0.200449         1.696876
 C         3.375333         0.293884         1.329321
 C         3.306159         0.262230        -0.225263
 C         3.882088         0.900421        -1.470647
 O         2.606025         1.499043        -1.864561
 C         2.192415         1.228229        -0.551414
 O         2.401918        -0.827588        -0.467613
 H        -0.388261        -1.120118        -0.197789
 H        -0.695640         0.434200         0.690880
 H        -0.465346         0.431603        -0.982436
 H         1.358694         1.062026         2.252502
 H         1.562251        -0.848582         2.114103
 H         3.795132         1.255749         1.704350
 H         4.016080        -0.440559         1.758010
 H         4.553339         1.819324        -1.213351
 H         4.274428         0.554256        -2.436588
 H         2.073506         2.198719        -0.155066
