19
Iteration:  3234
 C        -0.041089        -0.197275        -0.238130
 C         1.347863         0.148974         0.135051
 C         1.971972        -0.228038         1.571974
 C         3.523872        -0.069344         1.290347
 C         3.263632         0.438299        -0.164024
 C         3.768837         0.978047        -1.561512
 O         2.462760         1.796187        -1.556842
 C         2.179410         1.470649        -0.265793
 O         2.337622        -0.570563        -0.672675
 H        -0.554473         0.551476        -0.879553
 H        -0.155860        -1.125097        -0.834197
 H        -0.767763        -0.342883         0.544375
 H         1.718883         0.361234         2.535227
 H         1.735619        -1.255611         1.676090
 H         4.083148         0.697189         1.875723
 H         4.060149        -1.074380         1.321072
 H         4.533544         1.668712        -1.431687
 H         3.944289         0.288958        -2.301475
 H         1.971895         2.226535         0.445571
