19
Iteration:  1176charge 0 multiplicity 1
 C        -0.128646        -0.212490        -0.039766
 C         1.388912         0.113374         0.031580
 C         2.032861        -0.696500         1.298114
 C         3.579800        -0.380650         1.001177
 C         3.313328         0.471826        -0.189539
 C         3.700616         1.457564        -1.372613
 O         2.473998         2.023397        -1.296292
 C         2.102219         1.418048        -0.023966
 O         2.319852        -0.465038        -0.899834
 H        -0.308781        -1.319582         0.037925
 H        -0.589530         0.398836         0.814957
 H        -0.551457         0.189107        -0.999866
 H         1.464173        -0.394271         2.159558
 H         1.915755        -1.823978         1.082626
 H         4.231565         0.131350         1.747741
 H         4.135940        -1.364429         0.786761
 H         4.502306         2.128769        -0.909706
 H         4.177593         1.072404        -2.313246
 H         1.998308         2.106911         0.764211
