19
Iteration:  2783
 C        -0.076785        -0.227330        -0.231878
 C         1.384408         0.083460         0.076244
 C         2.017940        -0.472497         1.457200
 C         3.623589        -0.319186         1.100223
 C         3.283348         0.446968        -0.257112
 C         3.736014         1.301513        -1.421910
 O         2.406954         2.006555        -1.324800
 C         2.160497         1.427304        -0.019870
 O         2.261051        -0.508602        -0.862407
 H        -0.580434         0.500307         0.368206
 H        -0.167247        -0.249298        -1.288261
 H        -0.252962        -1.281867         0.170948
 H         1.746453         0.155243         2.322138
 H         1.710631        -1.563238         1.585356
 H         4.213149         0.086633         1.973882
 H         4.021237        -1.293596         0.888126
 H         4.587584         1.950348        -1.391319
 H         3.754243         0.775785        -2.376165
 H         2.273514         2.180716         0.801385
