19
Iteration:  2684charge 0 multiplicity 1
 C        -0.091680        -0.270182        -0.175349
 C         1.352928         0.111395         0.121359
 C         2.071612        -0.534642         1.430596
 C         3.616885        -0.375757         1.044686
 C         3.253096         0.451921        -0.217623
 C         3.736576         1.353722        -1.405164
 O         2.468975         2.020322        -1.351374
 C         2.102163         1.391598         0.044053
 O         2.260532        -0.456070        -0.882610
 H        -0.192962         0.230499        -1.144030
 H        -0.043220        -1.286711        -0.565112
 H        -0.812846         0.170768         0.549911
 H         1.983545         0.162220         2.264404
 H         1.682194        -1.603248         1.604161
 H         4.273527         0.101990         1.839370
 H         4.118191        -1.220948         0.649893
 H         4.591759         1.924831        -1.431736
 H         3.745207         0.808938        -2.368399
 H         2.026357         2.257040         0.734120
