19
Iteration:  2784charge 0 multiplicity 1
 C        -0.077726        -0.223313        -0.239712
 C         1.394242         0.085537         0.078838
 C         2.010523        -0.474723         1.457209
 C         3.631168        -0.323844         1.107372
 C         3.273107         0.437597        -0.252014
 C         3.737656         1.311589        -1.431685
 O         2.408237         2.004455        -1.327585
 C         2.156479         1.427630        -0.017822
 O         2.263626        -0.504243        -0.856778
 H        -0.592604         0.492144         0.407948
 H        -0.188794        -0.273669        -1.290888
 H        -0.208075        -1.301633         0.135288
 H         1.740655         0.140475         2.325382
 H         1.704023        -1.536345         1.604585
 H         4.208092         0.066669         1.942705
 H         4.020642        -1.314520         0.892687
 H         4.561648         1.953381        -1.418224
 H         3.724540         0.782332        -2.363564
 H         2.317253         2.213488         0.781716
