19
Iteration:  2446charge 0 multiplicity 1
 C        -0.105363        -0.134445        -0.022019
 C         1.333999         0.093714         0.099183
 C         2.067916        -0.545300         1.404077
 C         3.559243        -0.338736         1.064526
 C         3.274183         0.445595        -0.240823
 C         3.828574         1.408387        -1.266414
 O         2.384251         1.977540        -1.443998
 C         2.125316         1.350541        -0.131448
 O         2.356198        -0.565295        -0.950945
 H        -0.639501         0.708883        -0.431340
 H        -0.372114        -0.888907        -0.776567
 H        -0.591886        -0.256630         0.970401
 H         1.817839        -0.036786         2.467190
 H         1.577520        -1.594496         1.360419
 H         4.303213         0.211733         1.762941
 H         4.125255        -1.291680         0.901104
 H         4.441174         2.147241        -0.749734
 H         4.065553         1.088290        -2.299743
 H         1.967111         2.062910         0.713997
