19
Iteration:  3806
 C        -0.152133        -0.175050        -0.173277
 C         1.357329         0.141443         0.094889
 C         1.879211         0.224417         1.630421
 C         3.445037         0.203977         1.323426
 C         3.318611         0.449112        -0.159354
 C         3.836153         0.889209        -1.455437
 O         2.648979         1.439806        -1.838407
 C         2.123705         1.329284        -0.367779
 O         2.333371        -0.751294        -0.519880
 H        -0.703567         0.741781         0.031438
 H        -0.403941        -0.289908        -1.257707
 H        -0.534333        -0.994562         0.474935
 H         1.633951         1.177871         2.118292
 H         1.526516        -0.669966         2.305131
 H         3.888951         1.029547         1.911118
 H         3.939863        -0.773482         1.534327
 H         4.606571         1.594092        -1.433229
 H         4.180858         0.080586        -2.182000
 H         2.007815         2.416735         0.003654
