19
Iteration:  3171charge 0 multiplicity 1
 C        -0.163347        -0.181161        -0.034814
 C         1.379960         0.054040         0.069895
 C         1.948300        -0.147183         1.508076
 C         3.512955        -0.086492         1.180113
 C         3.260402         0.396943        -0.283453
 C         3.837322         1.204850        -1.382576
 O         2.546166         1.809650        -1.541242
 C         2.133256         1.334800        -0.194029
 O         2.314277        -0.718004        -0.826898
 H        -0.218979        -0.833989        -0.828045
 H        -0.472038        -0.647972         0.911023
 H        -0.598635         0.766509        -0.245130
 H         1.708477         0.782644         2.052619
 H         1.423647        -1.052644         1.903042
 H         4.112303         0.678014         1.642249
 H         4.058538        -0.994961         1.224655
 H         4.449915         2.057020        -0.888679
 H         4.389250         0.725168        -2.241348
 H         2.022532         2.232103         0.485608
