19
Iteration:  3245charge 0 multiplicity 1
 C        -0.173766        -0.120198        -0.202650
 C         1.338208         0.149602         0.116358
 C         1.960891        -0.224829         1.554608
 C         3.571485        -0.055382         1.323858
 C         3.339875         0.390272        -0.159393
 C         3.755970         1.050031        -1.523284
 O         2.468635         1.730525        -1.635996
 C         2.153205         1.445496        -0.141697
 O         2.385542        -0.631440        -0.748317
 H        -0.664508         0.741276        -0.705382
 H         0.064448        -0.856881        -0.998300
 H        -0.702293        -0.607411         0.598400
 H         1.480362         0.388942         2.400786
 H         1.844752        -1.255666         1.728307
 H         3.861998         0.778298         1.996331
 H         4.223469        -0.951976         1.570001
 H         4.478332         1.800963        -1.554806
 H         3.833051         0.466753        -2.360160
 H         2.113724         2.384160         0.351227
