19
Iteration:   571charge 0 multiplicity 1
 C        -0.079717        -0.204704        -0.153890
 C         1.405272        -0.059202         0.023355
 C         2.107774        -0.450018         1.337147
 C         3.561787        -0.259941         0.922989
 C         3.278148         0.339557        -0.342590
 C         3.667304         1.369314        -1.310816
 O         2.455476         2.084076        -1.067925
 C         2.121956         1.339512         0.034470
 O         2.274209        -0.509403        -1.011896
 H        -0.519042        -1.018998         0.367687
 H        -0.508503         0.688560         0.195371
 H        -0.226135        -0.387293        -1.185747
 H         1.838260         0.164912         2.164739
 H         1.975498        -1.411607         1.841139
 H         4.258880         0.277428         1.519076
 H         4.026744        -1.318431         0.891800
 H         4.492612         2.015309        -0.847301
 H         3.816045         1.137660        -2.350276
 H         1.964997         1.870373         1.043877
