19
Iteration:  1484charge 0 multiplicity 1
 C        -0.141683        -0.240806        -0.101644
 C         1.383480         0.062558         0.173435
 C         2.110497        -0.702500         1.388383
 C         3.576877        -0.411738         0.917544
 C         3.269306         0.493390        -0.213491
 C         3.787925         1.419308        -1.271225
 O         2.477793         2.012805        -1.436941
 C         2.106428         1.434872         0.050725
 O         2.254080        -0.389617        -0.935429
 H        -0.326063        -1.326331        -0.408520
 H        -0.723327        -0.089954         0.831854
 H        -0.654257         0.471023        -0.845762
 H         1.668534        -0.326791         2.265467
 H         1.812332        -1.708509         1.325262
 H         4.029181         0.321206         1.743465
 H         4.310348        -1.214491         0.775908
 H         4.590778         2.140216        -1.029835
 H         4.034222         0.883023        -2.159146
 H         1.981759         2.329986         0.625018
