19
Iteration:  3329charge 0 multiplicity 1
 C        -0.028770        -0.293047        -0.093900
 C         1.320405         0.196160         0.139526
 C         1.942043        -0.053685         1.531745
 C         3.450495        -0.074064         1.232867
 C         3.291107         0.379081        -0.172711
 C         3.782259         1.014177        -1.451603
 O         2.548158         1.723219        -1.645387
 C         2.166820         1.424753        -0.302166
 O         2.287460        -0.550386        -0.709460
 H        -0.429499        -0.848301         0.802514
 H        -0.725254         0.420290        -0.552462
 H         0.097774        -1.043837        -0.867191
 H         1.604658         0.688081         2.265188
 H         1.670132        -0.981385         2.083232
 H         3.965369         0.666876         1.844337
 H         3.917847        -1.099249         1.243584
 H         4.703077         1.756117        -1.317668
 H         4.133743         0.275203        -2.229558
 H         2.146375         2.379921         0.288181
