19
Iteration:  4414charge 0 multiplicity 1
 C        -0.169395        -0.138378        -0.100983
 C         1.349862         0.154896         0.105355
 C         1.879872         0.087438         1.629769
 C         3.494537         0.196528         1.443545
 C         3.302371         0.496371        -0.107031
 C         3.997559         0.914105        -1.546904
 O         2.578993         1.319841        -1.888052
 C         2.105090         1.425209        -0.528990
 O         2.290548        -0.687611        -0.471053
 H        -0.786298        -0.358443         0.758290
 H        -0.822905         0.787393        -0.416444
 H        -0.326946        -0.978742        -0.766801
 H         1.547105         0.952766         2.210129
 H         1.676285        -0.836145         2.038142
 H         4.137109         1.004724         1.989189
 H         3.804898        -0.885500         1.520006
 H         4.496578         1.806868        -1.433145
 H         4.576638         0.279342        -2.222841
 H         1.819830         2.554670        -0.179904
