19
Iteration:  3297
 C        -0.192617        -0.114447        -0.097116
 C         1.298203         0.054982         0.090438
 C         2.001310        -0.136445         1.554312
 C         3.513285         0.000364         1.197146
 C         3.275092         0.347457        -0.203262
 C         3.866408         1.157121        -1.359121
 O         2.544876         1.746955        -1.676109
 C         2.136397         1.281303        -0.361532
 O         2.329482        -0.687857        -0.667570
 H        -0.651758         0.256468         0.881373
 H        -0.561300         0.470435        -0.958011
 H        -0.343597        -1.191269        -0.185260
 H         1.785954         0.659303         2.288364
 H         1.833781        -1.049426         2.031151
 H         3.903462         0.794558         1.848613
 H         4.113298        -0.943337         1.380131
 H         4.395697         2.128110        -1.088809
 H         4.285247         0.741751        -2.288502
 H         2.021677         2.188717         0.223247
