19
Iteration:   217
 C        -0.164862        -0.183651        -0.100874
 C         1.342038         0.064842         0.032463
 C         2.115800        -0.639965         1.312907
 C         3.634392        -0.455236         0.932069
 C         3.306962         0.390475        -0.299722
 C         3.721022         1.518365        -1.258599
 O         2.387099         2.048291        -1.138337
 C         2.106196         1.332741         0.055923
 O         2.359172        -0.415894        -1.039966
 H        -0.724632         0.670097        -0.362250
 H        -0.302654        -0.836046        -0.963672
 H        -0.723390        -0.636273         0.727762
 H         1.905187        -0.001200         2.181831
 H         1.759100        -1.661754         1.427888
 H         4.121575         0.268049         1.609210
 H         4.211449        -1.311906         0.803382
 H         4.568729         2.035814        -0.915449
 H         3.980844         1.214978        -2.278655
 H         2.071489         1.919302         1.025264
