19
Iteration:  3642
 C        -0.081700        -0.299845        -0.184337
 C         1.371804         0.176621         0.117774
 C         1.873939         0.120544         1.648873
 C         3.462390         0.109370         1.322702
 C         3.309009         0.393840        -0.147727
 C         3.860708         0.869401        -1.576119
 O         2.582898         1.668679        -1.744099
 C         2.175667         1.439060        -0.421082
 O         2.257495        -0.697679        -0.492962
 H        -0.356333        -1.254462         0.376283
 H        -0.711714         0.573098         0.169124
 H        -0.235280        -0.389583        -1.279384
 H         1.420515         0.900300         2.325573
 H         1.627946        -0.963167         2.023046
 H         3.946480         0.956578         1.817596
 H         3.853962        -0.908545         1.519573
 H         4.689031         1.599628        -1.540925
 H         4.091694         0.042292        -2.430621
 H         2.116603         2.292049         0.183927
