19
Iteration:  3816charge 0 multiplicity 1
 C        -0.186665        -0.095493        -0.111673
 C         1.325566         0.060279         0.121343
 C         1.900781         0.208595         1.589299
 C         3.417290         0.279412         1.320489
 C         3.329164         0.392402        -0.157529
 C         3.971370         0.896143        -1.432387
 O         2.566219         1.447994        -1.799379
 C         2.128652         1.367547        -0.470076
 O         2.345399        -0.808183        -0.545231
 H        -0.615519         0.736731         0.416861
 H        -0.187438        -0.111558        -1.212427
 H        -0.539455        -1.111025         0.158687
 H         1.372799         1.105746         1.917634
 H         1.557706        -0.625211         2.283002
 H         4.021427         1.062740         1.855399
 H         3.863737        -0.736739         1.630940
 H         4.629897         1.740136        -1.302307
 H         4.278571         0.062541        -2.145491
 H         1.951305         2.408343         0.084817
