19
Iteration:  1006charge 0 multiplicity 1
 C        -0.172125        -0.161899        -0.136416
 C         1.312171         0.002424         0.081799
 C         2.086568        -0.525305         1.339513
 C         3.643613        -0.309826         0.964273
 C         3.293046         0.376326        -0.346473
 C         3.728826         1.398307        -1.255617
 O         2.414796         2.114966        -1.207932
 C         2.103754         1.232895         0.093937
 O         2.370763        -0.502507        -1.053834
 H        -0.388825        -1.190893         0.215077
 H        -0.580270         0.588540         0.519981
 H        -0.470061         0.052041        -1.175190
 H         1.771029         0.209656         2.073742
 H         1.977071        -1.488542         1.699985
 H         4.228369         0.313955         1.682314
 H         3.977488        -1.328728         0.996314
 H         4.634041         1.923483        -0.890943
 H         3.770368         1.083474        -2.275224
 H         2.107694         1.989122         0.937533
