19
Iteration:  3594charge 0 multiplicity 1
 C        -0.142598        -0.122494        -0.181952
 C         1.361724         0.046663         0.096902
 C         1.976103         0.039450         1.601872
 C         3.489309         0.215267         1.325724
 C         3.233808         0.355326        -0.213867
 C         3.881197         0.970048        -1.491246
 O         2.594081         1.609328        -1.780646
 C         2.095505         1.342028        -0.273701
 O         2.311237        -0.754288        -0.571158
 H        -0.603130        -0.104156         0.805450
 H        -0.533628         0.626291        -0.860725
 H        -0.341211        -1.111337        -0.694550
 H         1.579858         1.043447         2.213734
 H         1.720416        -0.813180         2.160778
 H         3.926981         1.138170         1.849278
 H         3.891540        -0.817162         1.532294
 H         4.756013         1.599590        -1.239061
 H         4.166149         0.342949        -2.274404
 H         1.764152         2.339813         0.257682
