19
Iteration:  2275
 C        -0.025860        -0.257663        -0.131429
 C         1.349814         0.071264         0.093750
 C         2.057504        -0.566783         1.359204
 C         3.500646        -0.335168         1.039392
 C         3.255579         0.446671        -0.261552
 C         3.757061         1.367991        -1.344226
 O         2.454504         2.000822        -1.277271
 C         2.163585         1.428813         0.023580
 O         2.298503        -0.467050        -0.977939
 H        -0.415713        -1.227770        -0.508921
 H        -0.534025        -0.069448         0.889628
 H        -0.758659         0.474303        -0.721035
 H         1.685099        -0.121138         2.246454
 H         1.840412        -1.593566         1.470005
 H         4.086776         0.323733         1.625157
 H         4.055611        -1.321607         0.991956
 H         4.640618         2.139141        -1.250881
 H         3.864133         0.886779        -2.344643
 H         2.334888         2.216181         0.832490
