19
Iteration:  4294
 C        -0.216242        -0.218044        -0.140948
 C         1.308390         0.168638         0.088945
 C         1.839135         0.288648         1.606706
 C         3.542175         0.240972         1.318862
 C         3.290036         0.339548        -0.143893
 C         3.908860         0.850705        -1.433228
 O         2.617345         1.327635        -1.865864
 C         2.187363         1.421849        -0.387963
 O         2.329323        -0.686313        -0.497295
 H        -0.380488        -1.204014        -0.507026
 H        -0.866784        -0.181230         0.805369
 H        -0.714393         0.379197        -0.896827
 H         1.509736         1.237911         2.056232
 H         1.613245        -0.528035         2.215572
 H         3.966462         1.166226         1.736884
 H         3.968069        -0.742428         1.673509
 H         4.572774         1.854363        -1.363435
 H         4.434044         0.176388        -2.166840
 H         1.989111         2.546791        -0.155940
