19
Iteration:  1077
 C        -0.076647        -0.161932        -0.125180
 C         1.421115         0.000296         0.051957
 C         2.090581        -0.553021         1.345955
 C         3.566329        -0.393274         1.008691
 C         3.276773         0.425160        -0.244417
 C         3.767865         1.377414        -1.330095
 O         2.413180         2.056944        -1.217320
 C         2.104526         1.341894         0.039048
 O         2.253006        -0.400508        -1.000256
 H        -0.100856        -1.280286        -0.167354
 H        -0.779393         0.247940         0.669600
 H        -0.337122         0.204367        -1.134429
 H         1.983723        -0.080832         2.314294
 H         1.870376        -1.677539         1.422472
 H         4.122436         0.177944         1.763627
 H         4.100601        -1.371251         0.745479
 H         4.466044         2.285018        -1.168576
 H         4.009790         0.699442        -2.233254
 H         1.742889         1.967828         0.811371
