19
Iteration:  3312
 C        -0.158311        -0.246364        -0.078199
 C         1.362020         0.114007         0.092064
 C         1.937907        -0.070603         1.575680
 C         3.508254        -0.019887         1.206666
 C         3.279927         0.419878        -0.277141
 C         3.949541         1.135966        -1.436377
 O         2.531398         1.656582        -1.654075
 C         2.112318         1.456638        -0.209629
 O         2.289390        -0.688935        -0.702006
 H        -0.747055        -0.225158         0.834336
 H        -0.678607         0.544530        -0.680162
 H        -0.367063        -1.201760        -0.599332
 H         1.573115         0.786373         2.207102
 H         1.564273        -1.087495         1.801518
 H         4.193981         0.698001         1.725101
 H         3.993214        -1.007865         1.262802
 H         4.697754         1.785971        -1.032123
 H         4.260614         0.511561        -2.249345
 H         2.027506         2.327900         0.437266
