19
Iteration:  4212
 C        -0.021120        -0.254448        -0.235352
 C         1.333522         0.262023         0.130904
 C         1.878910         0.160861         1.662100
 C         3.514714         0.292694         1.380883
 C         3.214890         0.393616        -0.095606
 C         3.806934         0.705206        -1.499563
 O         2.618412         1.396980        -1.869072
 C         2.142634         1.428831        -0.444427
 O         2.272344        -0.588343        -0.483893
 H         0.056424        -1.395144        -0.289540
 H        -0.629821         0.101736         0.582788
 H        -0.256496         0.236943        -1.190494
 H         1.543798         0.956420         2.321180
 H         1.496521        -0.850225         2.084829
 H         3.902498         1.197741         1.928341
 H         4.003915        -0.617355         1.665615
 H         4.617654         1.439873        -1.545245
 H         4.023324        -0.208212        -2.102041
 H         2.093193         2.421225        -0.106052
