19
Iteration:  3143
 C        -0.155902        -0.123315        -0.092353
 C         1.362188         0.078416         0.064941
 C         2.022359        -0.329672         1.527000
 C         3.487238        -0.123719         1.233751
 C         3.285593         0.419075        -0.257077
 C         3.809618         1.219720        -1.405001
 O         2.538193         1.780859        -1.651680
 C         2.103033         1.380814        -0.166784
 O         2.342689        -0.602609        -0.723949
 H        -0.543904        -1.215999        -0.258153
 H        -0.513063         0.165277         0.950902
 H        -0.678834         0.604442        -0.838396
 H         1.653198         0.230520         2.411253
 H         1.716693        -1.422198         1.396309
 H         4.076532         0.724629         1.684812
 H         4.064067        -1.100228         1.363691
 H         4.467799         2.012708        -1.117940
 H         4.280987         0.646147        -2.247970
 H         1.964203         2.341069         0.298637
