19
Iteration:  2589charge 0 multiplicity 1
 C        -0.158477        -0.221069        -0.045891
 C         1.449622         0.103848         0.133942
 C         2.076933        -0.658852         1.342824
 C         3.564930        -0.339436         1.086007
 C         3.264167         0.406149        -0.249639
 C         3.839072         1.475187        -1.362011
 O         2.430424         1.926385        -1.412390
 C         2.100849         1.433442        -0.063551
 O         2.269148        -0.434905        -0.883358
 H        -0.452773        -0.614835        -0.998649
 H        -0.539688        -0.967473         0.591972
 H        -0.708877         0.771294         0.111763
 H         1.716757        -0.330723         2.290269
 H         1.737473        -1.601970         1.023963
 H         4.115697         0.321654         1.693411
 H         4.136746        -1.259000         0.913356
 H         4.590225         2.254587        -0.929375
 H         4.256053         1.103587        -2.274081
 H         1.857139         2.174789         0.700822
