19
Iteration:   828
 C        -0.119974        -0.253232        -0.170928
 C         1.313516         0.084296         0.145577
 C         2.026341        -0.625080         1.354817
 C         3.542902        -0.393155         0.947080
 C         3.295387         0.482966        -0.260087
 C         3.708642         1.463199        -1.464315
 O         2.452139         2.078701        -1.244527
 C         2.192787         1.447467         0.098974
 O         2.357055        -0.514741        -0.838799
 H        -0.308383        -1.120993         0.461321
 H        -0.865201         0.569173        -0.070144
 H        -0.169807        -0.632630        -1.210731
 H         1.655576        -0.406969         2.326588
 H         1.780519        -1.748202         1.321580
 H         4.298212        -0.098041         1.660513
 H         3.968405        -1.340108         0.529889
 H         4.657607         2.187320        -1.441107
 H         3.721898         1.087998        -2.563834
 H         2.344889         2.118172         1.008283
