19
Iteration:  2974charge 0 multiplicity 1
 C        -0.126304        -0.095695        -0.145875
 C         1.376989         0.031395         0.051057
 C         1.970825        -0.356612         1.514348
 C         3.567820        -0.138619         1.133266
 C         3.314495         0.366851        -0.247090
 C         3.781576         1.235881        -1.438684
 O         2.418090         1.898481        -1.419212
 C         2.149819         1.334389        -0.097689
 O         2.362207        -0.590273        -0.838328
 H        -0.406645         0.563466        -0.978358
 H        -0.447901        -1.167450        -0.461683
 H        -0.637338         0.034962         0.806619
 H         1.574103         0.226211         2.302346
 H         1.768429        -1.388361         1.639672
 H         4.067985         0.646181         1.634225
 H         4.156951        -1.022747         1.343342
 H         4.593884         1.870495        -1.223461
 H         3.933804         0.719230        -2.366306
 H         2.038053         2.154179         0.682652
