19
Iteration:  2196charge 0 multiplicity 1
 C        -0.100542        -0.074967        -0.073227
 C         1.388259        -0.012001        -0.052291
 C         2.083250        -0.476271         1.429927
 C         3.609067        -0.294038         1.022716
 C         3.342321         0.381000        -0.375427
 C         3.741197         1.440734        -1.293138
 O         2.381095         1.982625        -1.205020
 C         2.123272         1.280511         0.005549
 O         2.296755        -0.577075        -0.975688
 H        -0.576889        -0.972214         0.384312
 H        -0.697783         0.874391        -0.013459
 H        -0.444443        -0.270401        -1.245477
 H         1.857192         0.066524         2.277817
 H         1.795458        -1.516775         1.537370
 H         4.044820         0.386818         1.787885
 H         3.973251        -1.302449         1.000570
 H         4.523114         2.199034        -0.830859
 H         3.966044         1.298912        -2.390569
 H         2.020228         1.907508         0.905750
