19
Iteration:   762
 C        -0.206905        -0.123196        -0.109884
 C         1.390492         0.003049         0.126496
 C         2.124492        -0.634848         1.346226
 C         3.627684        -0.390909         1.048251
 C         3.258023         0.372465        -0.340105
 C         3.740560         1.574555        -1.321037
 O         2.416951         2.122017        -1.312505
 C         2.150105         1.377555        -0.023658
 O         2.285456        -0.615026        -0.925050
 H        -0.376554        -1.211804         0.038522
 H        -0.817890         0.487556         0.603389
 H        -0.269403         0.062457        -1.202023
 H         1.784145        -0.193903         2.279720
 H         1.870139        -1.717853         1.328016
 H         4.054796         0.291655         1.812216
 H         4.118054        -1.349703         0.948013
 H         4.574244         2.170395        -0.725892
 H         4.168029         1.296228        -2.362576
 H         2.185501         2.016100         0.855366
