19
Iteration:  4149
 C        -0.147155        -0.087933        -0.124146
 C         1.284537         0.126618         0.102206
 C         1.890489         0.247456         1.653255
 C         3.469900         0.358411         1.406758
 C         3.304017         0.263034        -0.177613
 C         3.888194         0.914017        -1.474763
 O         2.585669         1.451052        -1.870725
 C         2.122662         1.363977        -0.410329
 O         2.382119        -0.901422        -0.576307
 H        -0.693065        -0.613082         0.659430
 H        -0.627860         0.787202        -0.295576
 H        -0.368191        -0.683529        -0.996751
 H         1.430469         1.079290         2.069903
 H         1.656535        -0.611166         2.201352
 H         3.989483         1.204326         1.710946
 H         4.081267        -0.430840         1.819252
 H         4.605714         1.814341        -1.275756
 H         4.337700         0.167865        -2.134955
 H         1.905389         2.334877         0.173965
