19
Iteration:   321charge 0 multiplicity 1
 C        -0.112367        -0.241494        -0.301969
 C         1.370863         0.018412         0.124080
 C         2.037540        -0.590742         1.390314
 C         3.605063        -0.360500         0.941334
 C         3.257128         0.358170        -0.289896
 C         3.717538         1.477201        -1.423472
 O         2.399020         2.132191        -1.151519
 C         2.222067         1.420359         0.047294
 O         2.279923        -0.498340        -0.830665
 H        -0.482447        -1.128670         0.330136
 H        -0.592830         0.752793        -0.079433
 H        -0.050892        -0.477338        -1.400217
 H         1.665295        -0.196668         2.348517
 H         1.848779        -1.723096         1.386841
 H         4.206015         0.111320         1.692644
 H         4.249140        -1.314692         0.702844
 H         4.633470         2.092972        -1.211882
 H         3.712892         0.926695        -2.354756
 H         2.314649         1.953149         0.949685
