19
Iteration:   502charge 0 multiplicity 1
 C        -0.093936        -0.169209        -0.150373
 C         1.359910         0.082409         0.035838
 C         2.209139        -0.640569         1.318589
 C         3.613067        -0.357264         1.039974
 C         3.315589         0.428369        -0.158942
 C         3.723089         1.370750        -1.282030
 O         2.373326         1.980111        -1.278722
 C         2.161447         1.396292         0.040685
 O         2.185572        -0.365469        -1.025634
 H        -0.231034        -1.219572        -0.267076
 H        -0.756800         0.005134         0.684114
 H        -0.553260         0.168548        -1.076225
 H         1.816520        -0.216624         2.245088
 H         1.842558        -1.687175         1.360802
 H         4.244390         0.114811         1.841534
 H         4.187400        -1.233108         0.823355
 H         4.584530         2.054088        -0.960015
 H         3.966002         0.703598        -2.163956
 H         2.039584         2.261686         0.747927
