19
Iteration:   514charge 0 multiplicity 1
 C        -0.073970        -0.224218        -0.079164
 C         1.371122         0.116231         0.104266
 C         2.050481        -0.667421         1.320690
 C         3.651950        -0.385795         0.985008
 C         3.268219         0.505238        -0.220714
 C         3.764260         1.294963        -1.295954
 O         2.437751         1.996692        -1.293136
 C         2.056727         1.377498         0.040218
 O         2.239025        -0.335901        -1.018640
 H        -0.084035        -1.251401         0.112416
 H        -0.711073         0.402003         0.511215
 H        -0.221395         0.042231        -1.115209
 H         2.000093        -0.366758         2.351074
 H         1.870274        -1.764670         1.098834
 H         3.944917         0.389964         1.742416
 H         4.317440        -1.257056         0.860525
 H         4.458739         2.164795        -1.007159
 H         4.091080         0.930150        -2.301234
 H         1.980176         2.053066         0.974014
