19
Iteration:  1051
 C        -0.193090        -0.241045        -0.059027
 C         1.409930         0.078300         0.129110
 C         2.007371        -0.700520         1.304005
 C         3.581728        -0.410147         1.011979
 C         3.283858         0.407974        -0.268518
 C         3.755634         1.440576        -1.333107
 O         2.474273         2.104892        -1.391075
 C         2.176397         1.448681         0.100281
 O         2.288741        -0.459070        -0.914845
 H        -0.288101        -1.319849         0.230309
 H        -0.923417         0.430319         0.417777
 H        -0.277893        -0.190645        -1.180110
 H         1.676724        -0.660497         2.355935
 H         1.856778        -1.611011         0.899729
 H         4.076657         0.361963         1.681038
 H         4.291229        -1.194351         0.731590
 H         4.343415         2.289203        -0.918708
 H         4.167899         1.070160        -2.276549
 H         2.151953         2.317379         0.831010
