19
Iteration:   648charge 0 multiplicity 1
 C        -0.138598        -0.161962        -0.109537
 C         1.350404        -0.055241         0.077792
 C         2.123503        -0.589532         1.354307
 C         3.601432        -0.330481         1.102032
 C         3.293408         0.427810        -0.281174
 C         3.744574         1.433351        -1.403170
 O         2.457921         1.981123        -1.256184
 C         2.107073         1.331190         0.028049
 O         2.298043        -0.390746        -1.028614
 H        -0.569893        -0.971239        -0.635537
 H        -0.579177        -0.297505         0.838840
 H        -0.560576         0.700189        -0.553172
 H         1.840683        -0.077049         2.269548
 H         1.808665        -1.633475         1.423661
 H         3.964059         0.381835         1.808757
 H         4.192550        -1.293008         1.132783
 H         4.638758         2.086670        -0.950091
 H         3.951710         1.049801        -2.405467
 H         1.785798         2.053369         0.894735
