19
Iteration:   890charge 0 multiplicity 1
 C        -0.121742        -0.162865        -0.039638
 C         1.345643        -0.004540         0.033555
 C         2.036356        -0.525826         1.294833
 C         3.622573        -0.361498         0.981594
 C         3.310509         0.412500        -0.295571
 C         3.762535         1.516027        -1.312422
 O         2.439656         2.175423        -1.228635
 C         2.110565         1.269453        -0.057297
 O         2.276547        -0.670383        -0.927918
 H        -0.388894        -1.231713        -0.118537
 H        -0.607815         0.264530         0.823842
 H        -0.482949         0.344455        -0.959867
 H         1.766439         0.112170         2.225657
 H         1.841466        -1.572143         1.362167
 H         4.151645         0.302584         1.732254
 H         4.175156        -1.280215         0.862978
 H         4.454662         2.043097        -0.697613
 H         4.093968         1.379655        -2.326586
 H         2.283030         1.941785         0.829316
