19
Iteration:  2070
 C        -0.104397        -0.232799        -0.157858
 C         1.378334         0.064282         0.097182
 C         2.082050        -0.458146         1.446679
 C         3.597546        -0.350601         0.980607
 C         3.230327         0.363108        -0.275007
 C         3.771154         1.347558        -1.331892
 O         2.478964         2.056777        -1.281450
 C         2.043140         1.375531        -0.036787
 O         2.293237        -0.498231        -0.924518
 H        -0.341264        -1.132176        -0.718379
 H        -0.560023        -0.495015         0.789630
 H        -0.470409         0.654519        -0.626354
 H         1.701415         0.193799         2.351043
 H         1.831775        -1.524561         1.659059
 H         4.390433         0.262873         1.561047
 H         4.191768        -1.316414         0.723071
 H         4.610950         2.037528        -0.979489
 H         3.853572         1.063308        -2.404922
 H         2.003303         2.119941         0.758771
