19
Iteration:   859
 C        -0.064515        -0.229285        -0.192490
 C         1.314514         0.002967         0.063904
 C         2.150575        -0.565699         1.442069
 C         3.622843        -0.409748         0.951522
 C         3.234400         0.383600        -0.279981
 C         3.700918         1.358033        -1.340860
 O         2.470882         2.031177        -1.260437
 C         2.057965         1.376688         0.085132
 O         2.260282        -0.323001        -0.968530
 H        -0.235816        -1.132398         0.324868
 H        -0.636593         0.521148         0.301219
 H        -0.156039        -0.341867        -1.255646
 H         1.892635         0.093486         2.309462
 H         1.794260        -1.582208         1.675899
 H         4.170308         0.316238         1.558430
 H         4.221452        -1.262096         0.676268
 H         4.465835         1.920359        -0.829361
 H         3.964130         1.179059        -2.402974
 H         2.161746         2.069327         1.044424
