19
Iteration:  1694
 C        -0.052114        -0.245001        -0.230422
 C         1.348972         0.028440         0.208275
 C         2.093031        -0.528309         1.369181
 C         3.588728        -0.389835         0.956558
 C         3.254410         0.422476        -0.272357
 C         3.728166         1.315391        -1.418048
 O         2.412998         2.095152        -1.256400
 C         2.118579         1.466397         0.055524
 O         2.268482        -0.460069        -0.877730
 H         0.060564        -1.256784        -0.715506
 H        -0.779217        -0.360509         0.627711
 H        -0.239271         0.457369        -1.045514
 H         2.104508        -0.018550         2.378119
 H         1.684922        -1.562828         1.541422
 H         4.246860         0.231675         1.708988
 H         4.240110        -1.421648         0.923976
 H         4.602430         2.062966        -1.293895
 H         3.797652         0.841866        -2.435097
 H         1.960451         2.144543         0.928929
