19
Iteration:  3597
 C        -0.114194        -0.128147        -0.194316
 C         1.353839         0.021550         0.099293
 C         1.959475         0.090992         1.596919
 C         3.495581         0.215347         1.328037
 C         3.249795         0.354554        -0.235537
 C         3.878130         0.937434        -1.477310
 O         2.584608         1.637946        -1.755232
 C         2.099071         1.347220        -0.262695
 O         2.300054        -0.762055        -0.579517
 H        -0.595063        -0.225936         0.790217
 H        -0.590913         0.665453        -0.803709
 H        -0.423370        -1.113020        -0.712988
 H         1.580781         1.005529         2.209902
 H         1.766332        -0.840687         2.170165
 H         3.982761         1.135097         1.781422
 H         3.889249        -0.807489         1.593675
 H         4.679223         1.662806        -1.228985
 H         4.238113         0.240974        -2.357898
 H         1.810340         2.278165         0.149262
