19
Iteration:  4494charge 0 multiplicity 1
 C        -0.039128        -0.196003        -0.210537
 C         1.360722         0.135694         0.150583
 C         1.908458         0.290597         1.590585
 C         3.463052         0.326691         1.252733
 C         3.183109         0.311908        -0.212184
 C         3.864215         0.779864        -1.469350
 O         2.590544         1.574790        -1.780078
 C         2.111131         1.327260        -0.460310
 O         2.339727        -0.814442        -0.391228
 H        -0.599576        -0.918822         0.440223
 H        -0.555177         0.726356        -0.171865
 H        -0.310907        -0.442207        -1.271010
 H         1.615207         1.095375         2.176856
 H         1.636503        -0.613571         2.216196
 H         3.961527         1.190431         1.807331
 H         4.000870        -0.550345         1.616108
 H         4.729471         1.373731        -1.220047
 H         3.981091         0.076420        -2.287043
 H         1.990234         2.264350         0.226520
