19
Iteration:  4102
 C        -0.088294        -0.117338        -0.073885
 C         1.317230         0.206566         0.139795
 C         1.845080         0.114901         1.632621
 C         3.460943         0.305059         1.399359
 C         3.303251         0.476765        -0.061433
 C         3.845071         0.828476        -1.461196
 O         2.607914         1.329033        -1.924911
 C         2.130560         1.382091        -0.550156
 O         2.361669        -0.674397        -0.552798
 H        -0.407655        -0.827708         0.703405
 H        -0.847435         0.678777        -0.109587
 H        -0.201388        -0.727310        -0.965820
 H         1.324559         0.657600         2.369319
 H         1.547396        -0.992112         1.702967
 H         3.934464         1.183422         1.964250
 H         4.028638        -0.555712         1.716946
 H         4.694023         1.572830        -1.333478
 H         4.166348        -0.087643        -2.093903
 H         2.035754         2.349961        -0.128032
