19
Iteration:  1292
 C        -0.104364        -0.216634        -0.139759
 C         1.337150         0.110319         0.122413
 C         2.084454        -0.610005         1.305637
 C         3.602390        -0.314980         1.011244
 C         3.271835         0.421343        -0.266712
 C         3.671851         1.374332        -1.277460
 O         2.444426         2.021535        -1.259700
 C         2.158948         1.342607         0.056361
 O         2.308632        -0.414408        -1.016257
 H        -0.093387        -1.186703        -0.611850
 H        -0.604835        -0.184576         0.816120
 H        -0.584307         0.511635        -0.758807
 H         1.554525        -0.268145         2.287725
 H         1.895231        -1.705531         1.186618
 H         4.262376         0.264097         1.603822
 H         4.031999        -1.335237         1.018820
 H         4.521934         2.106789        -1.080768
 H         4.048952         0.836542        -2.230160
 H         2.195593         2.077034         0.934750
