19
Iteration:  4170charge 0 multiplicity 1
 C        -0.032597        -0.185669        -0.187475
 C         1.350362         0.142273         0.110241
 C         1.826983         0.333206         1.561734
 C         3.447032         0.231940         1.325040
 C         3.300578         0.349360        -0.208657
 C         3.825702         0.811842        -1.486480
 O         2.551916         1.496123        -1.758080
 C         2.157178         1.287300        -0.431517
 O         2.353162        -0.749671        -0.423730
 H        -0.523601        -0.924718         0.489458
 H        -0.567210         0.684223        -0.113050
 H        -0.228943        -0.531851        -1.199228
 H         1.549781         1.262847         1.906706
 H         1.550914        -0.421479         2.267947
 H         4.015728         1.044136         1.757526
 H         3.997029        -0.618020         1.675713
 H         4.637959         1.646499        -1.353073
 H         4.030366         0.070431        -2.290511
 H         2.104991         2.278845         0.065584
