19
Iteration:  2482charge 0 multiplicity 1
 C        -0.081745        -0.180998        -0.166215
 C         1.374911         0.116001         0.122045
 C         2.056386        -0.545242         1.367896
 C         3.616609        -0.312020         1.090892
 C         3.259906         0.434976        -0.186080
 C         3.757446         1.241997        -1.386300
 O         2.370938         1.979885        -1.385048
 C         2.136879         1.443559        -0.008313
 O         2.295314        -0.452413        -0.917906
 H        -0.568380         0.716194        -0.530319
 H        -0.091300        -0.984736        -0.847224
 H        -0.552313        -0.603103         0.745758
 H         1.949440        -0.209206         2.489650
 H         1.829498        -1.587926         1.398164
 H         3.978720         0.375124         1.830935
 H         4.259421        -1.295702         0.940964
 H         4.514132         1.973084        -1.131073
 H         3.938101         0.728087        -2.334124
 H         2.179365         2.180644         0.767525
