19
Iteration:   459charge 0 multiplicity 1
 C        -0.042463        -0.127788        -0.199202
 C         1.411183        -0.006719         0.043514
 C         2.053009        -0.474409         1.397887
 C         3.594229        -0.334838         1.042145
 C         3.286759         0.345765        -0.347786
 C         3.669113         1.456417        -1.338336
 O         2.396117         2.191798        -1.150266
 C         2.146789         1.375710        -0.038346
 O         2.286599        -0.731769        -0.954112
 H        -0.330282        -0.925179        -0.912364
 H        -0.580309        -0.479240         0.653772
 H        -0.521479         0.762818        -0.598011
 H         1.811244         0.110027         2.297111
 H         1.935385        -1.566169         1.625843
 H         4.332623         0.134735         1.788350
 H         4.091260        -1.340590         1.062533
 H         4.503490         2.180797        -1.038722
 H         3.664201         1.130646        -2.422727
 H         2.290346         1.927812         0.987987
