19
Iteration:  2837charge 0 multiplicity 1
 C        -0.166440        -0.156325        -0.189479
 C         1.373178         0.062863         0.073609
 C         2.073155        -0.418366         1.460857
 C         3.622362        -0.245666         1.047025
 C         3.298745         0.359414        -0.290018
 C         3.707993         1.281809        -1.324637
 O         2.465695         1.960035        -1.360534
 C         2.102570         1.362028        -0.017813
 O         2.332113        -0.572116        -0.894569
 H        -0.748153        -0.470739         0.663154
 H        -0.526918         0.849682        -0.385607
 H        -0.234322        -0.694368        -1.150023
 H         1.872321         0.169760         2.393200
 H         1.778151        -1.486864         1.756866
 H         4.037134         0.618399         1.721185
 H         4.216527        -1.154419         1.166031
 H         4.482273         2.051173        -0.976846
 H         3.925187         0.856353        -2.336033
 H         1.843057         2.202838         0.605098
