19
Iteration:  4085
 C        -0.117245        -0.226210        -0.150540
 C         1.350834         0.185607         0.127285
 C         1.888517         0.170876         1.605747
 C         3.384501         0.294496         1.368573
 C         3.286670         0.431235        -0.161502
 C         3.952069         0.754167        -1.556355
 O         2.560993         1.384201        -1.832793
 C         2.134489         1.414960        -0.401341
 O         2.359182        -0.653258        -0.478760
 H        -0.473851        -1.065982         0.489460
 H        -0.627104         0.714412         0.107386
 H        -0.266414        -0.468651        -1.224865
 H         1.504491         1.142712         2.159138
 H         1.593080        -0.660050         2.204909
 H         3.758272         1.155928         1.831915
 H         3.856108        -0.656370         1.761673
 H         4.770194         1.493373        -1.629558
 H         4.233701        -0.076768        -2.128153
 H         1.924117         2.504555        -0.080641
