19
Iteration:  2526
 C        -0.176712        -0.236260        -0.238186
 C         1.359225        -0.025430         0.090866
 C         2.086415        -0.419641         1.510682
 C         3.600149        -0.284560         1.038965
 C         3.295491         0.386260        -0.372393
 C         3.704811         1.335043        -1.410512
 O         2.460159         2.180883        -1.172763
 C         2.196734         1.361608        -0.058064
 O         2.311482        -0.647419        -0.889488
 H        -0.394540         0.417390        -1.103084
 H        -0.410902        -1.270130        -0.413706
 H        -0.824756         0.026153         0.599163
 H         1.595873         0.424660         2.142731
 H         1.694409        -1.352988         1.850719
 H         4.169554         0.446277         1.600797
 H         4.154756        -1.310013         0.963937
 H         4.513077         1.999584        -1.356740
 H         3.699544         0.803071        -2.350205
 H         2.213595         1.981570         0.823810
