19
Iteration:  1448
 C        -0.121708        -0.102266        -0.049569
 C         1.372495        -0.054890         0.056988
 C         2.009535        -0.525562         1.309404
 C         3.592761        -0.317188         0.968992
 C         3.355208         0.370354        -0.317921
 C         3.741105         1.487787        -1.247298
 O         2.385845         2.058208        -1.276928
 C         2.138236         1.304250         0.046725
 O         2.328598        -0.589013        -1.014143
 H        -0.515204        -1.075947         0.124910
 H        -0.513911         0.527225         0.734636
 H        -0.352374         0.267879        -1.045705
 H         1.784648         0.045760         2.245776
 H         1.825781        -1.623720         1.401840
 H         4.017615         0.354027         1.721237
 H         4.221113        -1.188397         0.847322
 H         4.333669         2.335090        -0.815119
 H         4.063091         1.134723        -2.274406
 H         2.197679         1.867330         0.994785
