19
Iteration:  2266
 C        -0.080589        -0.294611        -0.158733
 C         1.393192         0.074746         0.089978
 C         2.018867        -0.551351         1.339889
 C         3.565585        -0.373237         1.073675
 C         3.247931         0.410456        -0.250281
 C         3.732669         1.291874        -1.388508
 O         2.434085         2.043812        -1.281601
 C         2.219887         1.455772         0.056313
 O         2.277929        -0.382644        -0.942280
 H        -0.027544        -1.452027        -0.283975
 H        -0.487846        -0.019330         0.874243
 H        -0.561947         0.362631        -1.046790
 H         1.599488        -0.034830         2.261348
 H         1.718910        -1.606421         1.344079
 H         4.044856         0.338705         1.710529
 H         4.180314        -1.199414         0.708696
 H         4.606367         1.984501        -1.182800
 H         3.815054         0.754130        -2.343467
 H         2.094940         2.242298         0.886327
