19
Iteration:   847charge 0 multiplicity 1
 C        -0.034955        -0.288844        -0.199647
 C         1.428200         0.108718         0.156314
 C         2.099213        -0.567242         1.357304
 C         3.635404        -0.458525         0.944740
 C         3.269014         0.437348        -0.232603
 C         3.711845         1.323008        -1.327001
 O         2.386732         2.101788        -1.247295
 C         2.147374         1.457185         0.020948
 O         2.197431        -0.400776        -0.925970
 H        -0.376733        -1.190787         0.258254
 H        -0.773171         0.459101        -0.062530
 H        -0.104083        -0.489293        -1.263173
 H         1.992574        -0.176810         2.403151
 H         1.702248        -1.568266         1.357758
 H         4.182397        -0.011764         1.795166
 H         4.172252        -1.353600         0.691482
 H         4.460485         2.030402        -1.117815
 H         3.902984         0.824440        -2.285336
 H         1.963715         2.238235         0.851574
