19
Iteration:  2851
 C        -0.196877        -0.098502        -0.113632
 C         1.328128        -0.017294         0.108649
 C         2.108005        -0.456943         1.419968
 C         3.577893        -0.159037         1.116078
 C         3.280900         0.318351        -0.304695
 C         3.880185         1.360958        -1.361466
 O         2.452429         1.962400        -1.348538
 C         2.061421         1.363629        -0.162006
 O         2.295328        -0.592962        -0.867912
 H        -0.564974        -0.968878         0.620035
 H        -0.670739         0.917218        -0.118092
 H        -0.512795        -0.551642        -1.166722
 H         1.694876         0.159782         2.257642
 H         1.888839        -1.509928         1.506819
 H         4.111057         0.522562         1.813605
 H         4.236475        -1.089841         1.041324
 H         4.663298         1.915972        -0.916918
 H         4.239713         1.055369        -2.330646
 H         2.019259         2.005206         0.811450
