19
Iteration:  2327charge 0 multiplicity 1
 C        -0.090426        -0.074932        -0.112706
 C         1.379873         0.025218         0.099505
 C         2.092669        -0.504688         1.417442
 C         3.556149        -0.275900         0.970163
 C         3.285275         0.398786        -0.292166
 C         3.786033         1.450869        -1.282401
 O         2.380205         1.959712        -1.295577
 C         2.150242         1.261489        -0.018993
 O         2.284366        -0.576006        -0.961692
 H        -0.341109        -0.693539        -0.958530
 H        -0.695570        -0.681668         0.542629
 H        -0.479742         0.917403        -0.359529
 H         1.700635         0.058492         2.318457
 H         1.816311        -1.572311         1.516780
 H         4.265697         0.376850         1.582826
 H         4.291021        -1.162888         0.833312
 H         4.377084         2.091437        -0.634679
 H         4.126939         1.220262        -2.300479
 H         1.932356         2.036571         0.696799
