19
Iteration:   152charge 0 multiplicity 1
 C        -0.205009        -0.220584        -0.201597
 C         1.379700        -0.034433         0.014913
 C         2.175292        -0.632372         1.315821
 C         3.670235        -0.363131         0.918895
 C         3.232274         0.400507        -0.331998
 C         3.697461         1.497056        -1.269240
 O         2.441994         2.140440        -1.071116
 C         2.211412         1.290666         0.168399
 O         2.185153        -0.431385        -1.027528
 H        -0.129738        -0.517605        -1.244554
 H        -0.574695        -1.077088         0.377982
 H        -0.750813         0.719417        -0.073256
 H         1.740606        -0.136762         2.185427
 H         2.039599        -1.729155         1.352826
 H         4.201353         0.245590         1.647382
 H         4.269956        -1.210968         0.715494
 H         4.540084         2.140804        -0.997747
 H         3.801484         1.251127        -2.379140
 H         2.431325         1.829661         1.109166
