19
Iteration:  3019charge 0 multiplicity 1
 C        -0.187790        -0.247808        -0.022636
 C         1.322062         0.138264         0.182427
 C         1.955890        -0.437997         1.470209
 C         3.506917        -0.110098         1.136600
 C         3.269423         0.397531        -0.276173
 C         3.889374         1.261014        -1.379879
 O         2.555095         1.792993        -1.551442
 C         2.161629         1.460722        -0.193356
 O         2.311352        -0.514368        -0.807997
 H        -0.811613         0.626760         0.163021
 H        -0.510484        -0.560024        -1.077061
 H        -0.462861        -1.127106         0.594182
 H         1.532276        -0.021280         2.324900
 H         1.920135        -1.536641         1.435514
 H         4.081522         0.500485         1.805400
 H         4.052921        -0.994210         0.991142
 H         4.445961         2.110954        -1.225761
 H         4.240571         0.753099        -2.272151
 H         2.188123         2.352297         0.495452
