19
Iteration:  1277charge 0 multiplicity 1
 C        -0.101225        -0.233525        -0.183775
 C         1.386266         0.083962         0.093004
 C         2.033036        -0.665045         1.333716
 C         3.608971        -0.428906         1.073720
 C         3.337565         0.424229        -0.219674
 C         3.701816         1.333546        -1.448295
 O         2.365912         2.076372        -1.223601
 C         2.205976         1.494694         0.072293
 O         2.299688        -0.385833        -0.958601
 H        -0.034949        -1.322548        -0.447630
 H        -0.784795        -0.146617         0.668385
 H        -0.453119         0.283443        -1.114962
 H         1.869960        -0.202179         2.350629
 H         1.699773        -1.682475         1.328984
 H         3.924163         0.123629         1.976350
 H         4.251611        -1.240596         0.815988
 H         4.582898         2.041245        -1.281821
 H         3.628382         0.882138        -2.388922
 H         2.143319         2.223947         0.852257
