19
Iteration:  2549
 C        -0.024025        -0.227704        -0.167613
 C         1.354350         0.033925         0.043469
 C         2.095812        -0.412776         1.412237
 C         3.603263        -0.351608         1.019279
 C         3.241867         0.434322        -0.316786
 C         3.734892         1.314097        -1.384265
 O         2.466252         2.056497        -1.232453
 C         2.036001         1.379160        -0.005639
 O         2.285103        -0.547572        -0.901386
 H        -0.330450        -0.073117        -1.236204
 H        -0.300904        -1.211082         0.275678
 H        -0.560710         0.449096         0.447165
 H         1.764778         0.227430         2.320485
 H         1.755130        -1.458759         1.539272
 H         4.056272         0.298009         1.785820
 H         4.144200        -1.360276         0.856414
 H         4.477954         2.017752        -1.011840
 H         4.026563         0.966030        -2.376246
 H         1.985221         2.075651         0.824628
