19
Iteration:  3102
 C        -0.032454        -0.164506        -0.243431
 C         1.390190         0.138871         0.112109
 C         1.989288        -0.287252         1.536895
 C         3.541452        -0.085384         1.158209
 C         3.266873         0.351431        -0.238123
 C         3.708137         1.088193        -1.514038
 O         2.458689         1.832024        -1.495592
 C         2.137086         1.452256        -0.063389
 O         2.314948        -0.592982        -0.727689
 H        -0.506803        -0.899578         0.415339
 H        -0.456357         0.798052        -0.320522
 H         0.085823        -0.579162        -1.224505
 H         1.552375         0.223783         2.512081
 H         1.799303        -1.326575         1.573432
 H         3.913370         0.632014         1.892897
 H         4.199862        -1.019857         1.138105
 H         4.507955         1.783298        -1.232071
 H         3.948017         0.566389        -2.407827
 H         2.116372         2.173221         0.739781
