19
Iteration:  4225charge 0 multiplicity 1
 C        -0.070848        -0.153108        -0.141745
 C         1.335406         0.217161         0.163285
 C         1.837477         0.186024         1.580304
 C         3.437360         0.329682         1.330101
 C         3.335140         0.437217        -0.173888
 C         3.906259         0.730874        -1.453920
 O         2.570206         1.348818        -1.806767
 C         2.140414         1.457445        -0.397666
 O         2.299438        -0.706995        -0.520765
 H        -0.012321        -1.229419        -0.453720
 H        -0.825459        -0.170899         0.548816
 H        -0.450573         0.296450        -1.071514
 H         1.321589         0.828812         2.213077
 H         1.731448        -0.812407         1.913839
 H         3.935514         1.246207         1.547243
 H         3.984845        -0.538339         1.686834
 H         4.867524         1.404223        -1.455457
 H         4.093521        -0.153395        -2.073132
 H         1.935589         2.479726        -0.000075
