19
Iteration:  3099charge 0 multiplicity 1
 C        -0.036769        -0.164121        -0.255073
 C         1.385245         0.136923         0.098707
 C         1.966730        -0.284176         1.558359
 C         3.566571        -0.101028         1.182859
 C         3.266338         0.367700        -0.258444
 C         3.691762         1.107725        -1.516930
 O         2.475170         1.835126        -1.484604
 C         2.144864         1.453269        -0.077479
 O         2.310726        -0.610491        -0.722206
 H        -0.512088        -0.876942         0.499672
 H        -0.504040         0.848775        -0.371438
 H         0.085410        -0.665895        -1.288183
 H         1.631682         0.291229         2.456514
 H         1.839813        -1.427024         1.646144
 H         3.973021         0.644542         1.936582
 H         4.213690        -1.028056         1.150897
 H         4.486427         1.716401        -1.231431
 H         3.865757         0.649604        -2.519721
 H         2.074294         2.157336         0.739644
