19
Iteration:   208
 C        -0.167919        -0.226208        -0.148938
 C         1.368565         0.050396         0.052720
 C         2.070649        -0.635622         1.326933
 C         3.657084        -0.471524         0.951277
 C         3.329355         0.401514        -0.266663
 C         3.725484         1.462715        -1.333870
 O         2.362820         2.122209        -1.124880
 C         2.167301         1.376710         0.056288
 O         2.339868        -0.410610        -1.014374
 H        -0.651490         0.673626        -0.518113
 H        -0.353672        -1.065754        -0.862958
 H        -0.696808        -0.487208         0.841272
 H         1.765660        -0.327428         2.361461
 H         1.807166        -1.653595         1.275175
 H         4.208926        -0.032062         1.829829
 H         4.102019        -1.347768         0.665048
 H         4.402441         2.293385        -1.021598
 H         3.908765         1.102784        -2.347686
 H         2.006337         2.077120         0.847017
