19
Iteration:  1139charge 0 multiplicity 1
 C        -0.037055        -0.190556        -0.204084
 C         1.372433         0.020295         0.045984
 C         2.111846        -0.619069         1.408973
 C         3.617276        -0.338648         1.045831
 C         3.230915         0.337773        -0.294919
 C         3.677940         1.344793        -1.351726
 O         2.450368         2.103828        -1.230641
 C         2.156880         1.410430         0.058970
 O         2.224678        -0.443888        -0.940730
 H        -0.181011        -1.189597        -0.651530
 H        -0.647923        -0.206645         0.700409
 H        -0.445592         0.519753        -0.927882
 H         1.662343        -0.138654         2.297106
 H         1.884256        -1.633224         1.452068
 H         4.178310         0.440163         1.598366
 H         4.313057        -1.154760         0.752409
 H         4.315752         2.115859        -1.028463
 H         3.913131         1.037087        -2.358616
 H         2.187485         2.179253         0.896008
