19
Iteration:   474charge 0 multiplicity 1
 C        -0.066757        -0.130547        -0.144013
 C         1.363008         0.006588         0.141419
 C         2.049908        -0.562339         1.392710
 C         3.533249        -0.352547         0.949975
 C         3.295258         0.367087        -0.348194
 C         3.714535         1.491195        -1.400019
 O         2.394325         2.169042        -1.208835
 C         2.162686         1.266496        -0.015902
 O         2.370586        -0.592265        -0.859215
 H        -0.096312        -1.071808        -0.896330
 H        -0.775946        -0.290327         0.747062
 H        -0.429415         0.708935        -0.803174
 H         1.781554         0.013462         2.307096
 H         1.571097        -1.572983         1.550201
 H         4.003377         0.281614         1.675704
 H         4.059117        -1.382161         0.644235
 H         4.558375         2.032620        -1.009892
 H         3.960809         1.150774        -2.370248
 H         2.054290         1.978370         0.830627
