19
Iteration:  1829
 C        -0.023921        -0.278323        -0.229356
 C         1.385844         0.018667         0.126412
 C         2.053076        -0.540391         1.460875
 C         3.616934        -0.514030         1.076720
 C         3.300505         0.478669        -0.285457
 C         3.647128         1.407789        -1.466850
 O         2.393165         2.042051        -1.279947
 C         2.188006         1.481744         0.052513
 O         2.288413        -0.389640        -0.883180
 H        -0.258542        -1.324683        -0.470588
 H        -0.701938         0.207024         0.482228
 H        -0.303347         0.152158        -1.239714
 H         1.707874         0.028189         2.300069
 H         1.652780        -1.518515         1.503055
 H         4.239542        -0.066195         1.905338
 H         3.979291        -1.608259         0.764023
 H         4.586980         2.013542        -1.253173
 H         3.744893         0.894511        -2.449839
 H         1.983692         2.249178         0.749814
