19
Iteration:  4520charge 0 multiplicity 1
 C        -0.138209        -0.141190        -0.154357
 C         1.384111         0.204395         0.127472
 C         1.845518         0.173421         1.625785
 C         3.462685         0.261709         1.425962
 C         3.318430         0.442212        -0.128534
 C         3.902188         0.855596        -1.550228
 O         2.531109         1.335080        -1.856178
 C         2.158111         1.391502        -0.451900
 O         2.369628        -0.734983        -0.517110
 H        -0.328292        -1.146662         0.176766
 H        -0.824888         0.563016         0.385643
 H        -0.497295        -0.002508        -1.141820
 H         1.460156         1.080891         2.252181
 H         1.539357        -0.700005         2.194169
 H         3.817536         1.032868         2.019888
 H         4.002796        -0.650563         1.728416
 H         4.771927         1.688748        -1.539515
 H         4.078861         0.010954        -2.254329
 H         1.929438         2.346852        -0.092970
