19
Iteration:   267charge 0 multiplicity 1
 C        -0.140845        -0.193903        -0.115327
 C         1.328308         0.023707         0.124659
 C         2.084031        -0.650400         1.272045
 C         3.574491        -0.389414         0.920740
 C         3.271306         0.399198        -0.310728
 C         3.751130         1.551920        -1.305212
 O         2.463752         2.124585        -1.234135
 C         2.139819         1.375406         0.069638
 O         2.322911        -0.546630        -0.945926
 H        -0.837407         0.102075         0.808962
 H        -0.730293         0.320196        -0.950601
 H        -0.259258        -1.332743        -0.193727
 H         1.834120        -0.091739         2.180795
 H         1.886431        -1.783219         1.243179
 H         3.942269         0.161060         1.783548
 H         4.284185        -1.334045         0.680845
 H         4.530550         2.231550        -0.714441
 H         4.214541         1.154255        -2.249211
 H         1.996651         2.038009         0.912541
