19
Iteration:  4088
 C        -0.119356        -0.228783        -0.127909
 C         1.357271         0.200457         0.117404
 C         1.882240         0.156090         1.591690
 C         3.372558         0.297928         1.400379
 C         3.308858         0.424101        -0.176054
 C         3.947391         0.760203        -1.515699
 O         2.562249         1.378748        -1.840530
 C         2.137475         1.373995        -0.429567
 O         2.348682        -0.610321        -0.488689
 H        -0.494943        -1.006199         0.546999
 H        -0.671832         0.805239         0.059557
 H        -0.224250        -0.471786        -1.216359
 H         1.489289         1.078199         2.224984
 H         1.708424        -0.774121         2.224445
 H         3.827721         1.224991         1.895363
 H         3.903991        -0.683857         1.681413
 H         4.668510         1.543932        -1.697595
 H         4.213917        -0.129696        -2.109670
 H         1.919814         2.391698        -0.175596
