19
Iteration:  4266charge 0 multiplicity 1
 C        -0.105673        -0.036934        -0.038082
 C         1.395570         0.092122         0.124103
 C         1.850935         0.258415         1.568513
 C         3.389401         0.291474         1.345486
 C         3.281885         0.298466        -0.147963
 C         3.958333         0.932348        -1.439860
 O         2.588761         1.473359        -1.946861
 C         2.082480         1.310360        -0.524447
 O         2.372317        -0.897660        -0.433661
 H        -0.327778        -1.044597        -0.565000
 H        -0.664822         0.165692         0.878669
 H        -0.407456         0.772490        -0.755046
 H         1.359128         1.098188         2.123606
 H         1.672855        -0.784595         2.139527
 H         3.883061         1.118884         1.918404
 H         3.821014        -0.568203         1.816297
 H         4.415614         1.803062        -1.197966
 H         4.545329         0.317526        -2.121272
 H         1.646924         2.225687        -0.317076
