19
Iteration:  1171
 C        -0.136308        -0.209821        -0.043092
 C         1.339787         0.084699         0.071688
 C         2.035970        -0.693713         1.299443
 C         3.594036        -0.370645         1.009930
 C         3.305568         0.463551        -0.169830
 C         3.766625         1.430980        -1.389742
 O         2.473801         2.002486        -1.268148
 C         2.093975         1.418097        -0.008710
 O         2.327250        -0.439516        -0.943779
 H        -0.273808        -1.280355        -0.050696
 H        -0.670336         0.260179         0.764885
 H        -0.492832         0.236554        -0.956782
 H         1.392959        -0.377237         2.171294
 H         1.847722        -1.693619         1.081311
 H         4.224740         0.214102         1.686589
 H         4.208020        -1.211385         0.639844
 H         4.403688         2.294150        -1.188450
 H         4.102004         0.960334        -2.316256
 H         1.993547         2.221460         0.819061
