19
Iteration:  4289charge 0 multiplicity 1
 C        -0.218580        -0.176571        -0.121387
 C         1.319186         0.145053         0.078592
 C         1.842771         0.292955         1.595544
 C         3.503643         0.241403         1.274746
 C         3.260777         0.363926        -0.145641
 C         3.924584         0.917634        -1.432772
 O         2.623112         1.320534        -1.850058
 C         2.156789         1.365628        -0.422605
 O         2.346821        -0.717188        -0.469603
 H        -0.257348        -1.244117        -0.538193
 H        -0.685788        -0.047305         0.807138
 H        -0.687843         0.550531        -0.837418
 H         1.492708         1.248326         2.001810
 H         1.533472        -0.582684         2.302808
 H         3.979699         1.098187         1.756299
 H         4.087394        -0.620286         1.572318
 H         4.580185         1.686168        -1.232471
 H         4.363189         0.182188        -2.077553
 H         2.157467         2.349275        -0.070540
