19
Iteration:  2749charge 0 multiplicity 1
 C        -0.152837        -0.187566        -0.063959
 C         1.287964         0.026756         0.022276
 C         2.086821        -0.538685         1.453294
 C         3.634950        -0.192601         1.068161
 C         3.288351         0.371250        -0.335914
 C         3.811920         1.404765        -1.317241
 O         2.479007         2.039295        -1.341911
 C         2.112034         1.350831        -0.108608
 O         2.276509        -0.605248        -0.935922
 H        -0.559849         0.779513        -0.100849
 H        -0.601898        -0.479014        -0.994037
 H        -0.664561        -0.652319         0.786554
 H         1.649515         0.013953         2.327471
 H         1.778057        -1.648425         1.625266
 H         4.071755         0.524834         1.868290
 H         4.272079        -1.041442         1.006711
 H         4.582850         1.901258        -0.707513
 H         4.071406         1.087712        -2.338006
 H         2.030395         1.854686         0.838868
