19
Iteration:  1937
 C        -0.086492        -0.290045        -0.159816
 C         1.346106         0.121338         0.131293
 C         2.109267        -0.595674         1.415863
 C         3.537883        -0.419589         1.046484
 C         3.234679         0.500404        -0.275434
 C         3.762329         1.348425        -1.400339
 O         2.453036         2.039335        -1.307087
 C         2.120995         1.471364         0.021600
 O         2.310943        -0.448755        -0.931207
 H        -0.265852        -1.329335        -0.169667
 H        -0.896943         0.151094         0.410053
 H        -0.238574         0.247111        -1.112685
 H         1.875045        -0.075871         2.411171
 H         1.924524        -1.697119         1.482582
 H         4.104442         0.096844         1.845459
 H         3.948372        -1.479868         0.727663
 H         4.540706         2.094561        -1.100760
 H         3.877095         0.759657        -2.328660
 H         2.156098         2.263043         0.785446
