19
Iteration:  2511charge 0 multiplicity 1
 C        -0.075713        -0.224758        -0.239145
 C         1.364024         0.006542         0.113383
 C         2.005529        -0.429444         1.413328
 C         3.579267        -0.243608         1.049306
 C         3.246029         0.332915        -0.292234
 C         3.739703         1.355355        -1.559417
 O         2.462573         2.124862        -1.221688
 C         2.186918         1.350267         0.042142
 O         2.265766        -0.605179        -0.852891
 H        -0.414920         0.599869        -0.844343
 H        -0.085298        -1.163698        -0.801296
 H        -0.691354        -0.313568         0.710571
 H         1.950988         0.104146         2.339730
 H         1.823425        -1.449506         1.835811
 H         4.036815         0.427766         1.819983
 H         4.208772        -1.087785         1.092716
 H         4.567465         1.924277        -1.159158
 H         3.663390         0.980192        -2.590810
 H         2.281241         2.002192         0.954993
