19
Iteration:  2125
 C        -0.085414        -0.227879        -0.150631
 C         1.384080         0.084435         0.150281
 C         2.093893        -0.527424         1.388804
 C         3.534229        -0.323623         1.046101
 C         3.276070         0.397777        -0.252692
 C         3.731953         1.277610        -1.427477
 O         2.431391         2.070742        -1.270471
 C         2.176178         1.387981         0.031705
 O         2.281945        -0.469043        -0.971867
 H        -0.104569        -1.280494        -0.467005
 H        -0.897989        -0.254970         0.610526
 H        -0.499155         0.448263        -0.858681
 H         1.814134         0.160868         2.306764
 H         1.842524        -1.615482         1.456889
 H         3.949658         0.561740         1.677313
 H         4.226269        -1.194792         0.775556
 H         4.555920         1.950585        -1.042812
 H         3.897412         0.796722        -2.421061
 H         2.017155         2.083702         0.900577
