19
Iteration:  4781charge 0 multiplicity 1
 C        -0.111042        -0.187029        -0.105597
 C         1.329166         0.198995         0.131093
 C         1.883808         0.225009         1.633239
 C         3.429591         0.187260         1.358812
 C         3.277475         0.407676        -0.150634
 C         3.892005         0.838525        -1.478468
 O         2.630517         1.417553        -1.848429
 C         2.093735         1.380105        -0.458690
 O         2.341448        -0.682909        -0.562667
 H        -0.287033        -0.968425         0.662604
 H        -0.804863         0.704366         0.134835
 H        -0.319615        -0.573153        -1.112400
 H         1.624798         1.145711         2.099164
 H         1.512628        -0.585492         2.166261
 H         4.033894         0.948661         1.845556
 H         3.866924        -0.846147         1.406302
 H         4.701453         1.523941        -1.298899
 H         4.289640        -0.005937        -2.016569
 H         1.846731         2.378096         0.018066
