19
Iteration:  4857charge 0 multiplicity 1
 C        -0.112267        -0.133597        -0.200750
 C         1.280018         0.272098         0.077464
 C         1.939102         0.100483         1.620063
 C         3.521766         0.301175         1.306484
 C         3.300038         0.448884        -0.087533
 C         3.827570         0.712627        -1.483450
 O         2.574971         1.333833        -1.756462
 C         2.123918         1.437512        -0.462635
 O         2.326824        -0.632379        -0.503008
 H        -0.026024        -1.178435        -0.435067
 H        -0.824112        -0.095848         0.668677
 H        -0.445889         0.356852        -1.112928
 H         1.684024         0.742461         2.450929
 H         1.638110        -0.855575         1.912088
 H         3.833137         1.202736         1.804971
 H         4.051935        -0.600458         1.695271
 H         4.726565         1.450382        -1.420672
 H         3.998432        -0.236746        -2.026202
 H         1.924445         2.406848        -0.131074
