19
Iteration:  2028
 C        -0.091407        -0.179532        -0.061414
 C         1.343041         0.114681         0.082274
 C         2.006288        -0.653720         1.338586
 C         3.590367        -0.291506         1.044787
 C         3.283502         0.393955        -0.287762
 C         3.739190         1.413704        -1.400127
 O         2.440795         1.959709        -1.339905
 C         2.160508         1.434148        -0.035066
 O         2.332638        -0.443316        -0.873607
 H        -0.306060        -1.260268        -0.010773
 H        -0.674247         0.126579         0.800246
 H        -0.484419         0.296447        -0.941174
 H         1.754402        -0.658247         2.392714
 H         1.821221        -1.638279         0.890219
 H         3.959954         0.431326         1.897844
 H         4.160883        -1.273196         1.077120
 H         4.496768         2.078427        -0.858631
 H         4.096224         0.832894        -2.262029
 H         1.970020         2.133961         0.743923
