19
Iteration:  4646
 C        -0.083932        -0.191785        -0.115864
 C         1.265823         0.192976         0.202798
 C         1.891592         0.193717         1.648761
 C         3.384917         0.226390         1.310368
 C         3.362261         0.504002        -0.161095
 C         3.967788         0.766227        -1.492339
 O         2.582648         1.375082        -1.866560
 C         2.135717         1.372364        -0.457230
 O         2.282787        -0.615871        -0.502963
 H        -0.129789        -1.371866        -0.222139
 H        -0.806930        -0.028213         0.694051
 H        -0.406333         0.265018        -1.118692
 H         1.644425         1.111754         2.142252
 H         1.562548        -0.760889         2.203244
 H         3.927640         1.132573         1.786753
 H         3.900796        -0.746132         1.353271
 H         4.890877         1.403568        -1.620651
 H         4.066014        -0.206673        -2.039366
 H         1.963990         2.373426        -0.000962
