19
Iteration:   796
 C        -0.040192        -0.076410        -0.115603
 C         1.435156        -0.048514         0.009037
 C         2.147671        -0.547388         1.328847
 C         3.611365        -0.270285         1.063613
 C         3.201252         0.329582        -0.277702
 C         3.712723         1.396639        -1.266807
 O         2.421560         2.067432        -1.190320
 C         2.073705         1.324381         0.087097
 O         2.254586        -0.529749        -1.113281
 H        -0.418019        -0.946813         0.484633
 H        -0.726585         0.791772         0.120468
 H        -0.336809        -0.403058        -1.140337
 H         1.772008         0.009222         2.141122
 H         2.046046        -1.671834         1.541833
 H         4.150373         0.454780         1.658081
 H         4.232697        -1.207249         0.994023
 H         4.524712         2.204093        -1.009647
 H         3.727402         1.079976        -2.365500
 H         2.054143         1.895135         0.980723
