19
Iteration:  4356charge 0 multiplicity 1
 C        -0.150023        -0.168666        -0.219201
 C         1.300007         0.143221         0.060795
 C         1.931568         0.248908         1.624303
 C         3.455437         0.330870         1.430103
 C         3.299292         0.348112        -0.139446
 C         3.825036         0.804956        -1.577791
 O         2.629421         1.533614        -1.789481
 C         2.134278         1.289337        -0.436144
 O         2.353070        -0.774435        -0.452439
 H        -0.419846        -0.959428         0.495222
 H        -0.639599         0.774747        -0.047025
 H        -0.270712        -0.462161        -1.269060
 H         1.608654         1.116390         2.237528
 H         1.556479        -0.637279         2.164410
 H         3.950114         1.223917         1.699256
 H         4.073016        -0.475977         1.859536
 H         4.578397         1.423562        -1.779281
 H         3.863540        -0.098306        -2.136527
 H         1.987190         2.067820         0.225376
