19
Iteration:  3683charge 0 multiplicity 1
 C        -0.138713        -0.154894        -0.126498
 C         1.329007         0.145528         0.079288
 C         1.889254         0.046267         1.584440
 C         3.454949         0.179438         1.330607
 C         3.314444         0.424834        -0.169868
 C         3.943351         0.968179        -1.423171
 O         2.525449         1.401133        -1.776590
 C         2.165966         1.396073        -0.423247
 O         2.297045        -0.648923        -0.578844
 H        -0.318652        -1.128586        -0.618434
 H        -0.542608        -0.257639         0.874406
 H        -0.413193         0.808537        -0.637953
 H         1.514076         0.845252         2.361556
 H         1.563044        -0.933132         1.958023
 H         4.020440         1.016155         1.874107
 H         4.073767        -0.781898         1.494207
 H         4.679693         1.751201        -1.332213
 H         4.323082         0.205869        -2.090075
 H         1.988956         2.454647         0.069636
