19
Iteration:  2632charge 0 multiplicity 1
 C        -0.147241        -0.168632        -0.158267
 C         1.358354        -0.012865         0.052137
 C         2.055989        -0.493145         1.444674
 C         3.614010        -0.271077         1.018838
 C         3.335913         0.342911        -0.347745
 C         3.763279         1.393163        -1.398091
 O         2.405971         2.067408        -1.186607
 C         2.120636         1.319818        -0.032922
 O         2.304708        -0.557880        -0.930251
 H        -0.379186        -0.541365        -1.152673
 H        -0.572753        -0.903180         0.485909
 H        -0.434449         0.954799        -0.035044
 H         1.739912         0.115501         2.263551
 H         2.021334        -1.528799         1.751356
 H         4.068233         0.419927         1.704205
 H         4.151281        -1.193821         1.235370
 H         4.676877         2.156949        -1.130236
 H         3.757370         1.047132        -2.455698
 H         1.934669         2.099957         0.751723
