19
Iteration:  3579charge 0 multiplicity 1
 C        -0.138736        -0.109895        -0.122434
 C         1.303335         0.166417         0.146233
 C         1.909734        -0.041526         1.613588
 C         3.470648         0.103270         1.297696
 C         3.303376         0.437480        -0.181465
 C         3.873175         0.995093        -1.436684
 O         2.554124         1.537445        -1.790249
 C         2.114725         1.367819        -0.434552
 O         2.387219        -0.710945        -0.555134
 H        -0.906648         0.168348         0.629370
 H        -0.449838         0.414102        -1.055927
 H        -0.346863        -1.146300        -0.249149
 H         1.596127         0.675877         2.297503
 H         1.602475        -1.083172         1.985811
 H         3.854354         0.963166         1.774033
 H         4.189178        -0.648593         1.492371
 H         4.514247         1.898560        -1.365713
 H         4.242456         0.232464        -2.154943
 H         2.160350         2.360616         0.072979
