19
Iteration:   218
 C        -0.163322        -0.174627        -0.099060
 C         1.342679         0.058362         0.033853
 C         2.119977        -0.643650         1.306538
 C         3.628180        -0.450919         0.928440
 C         3.300205         0.392888        -0.306468
 C         3.723109         1.522917        -1.248225
 O         2.393372         2.042725        -1.145570
 C         2.099312         1.326547         0.066222
 O         2.355603        -0.419977        -1.042681
 H        -0.711046         0.694858        -0.357566
 H        -0.287342        -0.819076        -0.989267
 H        -0.693167        -0.687010         0.760740
 H         1.923411         0.042253         2.161888
 H         1.770926        -1.631135         1.452562
 H         4.128283         0.299495         1.591457
 H         4.201202        -1.278687         0.832876
 H         4.588470         2.033694        -0.866877
 H         3.954718         1.222850        -2.269382
 H         2.085274         1.889969         1.011792
