19
Iteration:  2048
 C        -0.115852        -0.214625        -0.091460
 C         1.385622         0.074345         0.130728
 C         2.078198        -0.650619         1.328772
 C         3.552739        -0.290736         1.041167
 C         3.322150         0.489258        -0.221124
 C         3.818894         1.365584        -1.331906
 O         2.409065         1.959161        -1.387630
 C         2.153527         1.444767         0.007866
 O         2.195788        -0.439327        -0.975103
 H        -0.223755        -1.225329        -0.427710
 H        -0.679482        -0.323702         0.818991
 H        -0.485593         0.483332        -0.817903
 H         1.732584        -0.061633         2.286309
 H         2.007380        -1.727286         1.534319
 H         3.984951         0.263860         1.965170
 H         4.218629        -1.253816         0.966992
 H         4.645471         2.068785        -0.950281
 H         4.072399         0.749331        -2.241349
 H         2.246380         2.205410         0.785730
