19
Iteration:  2397
 C        -0.106650        -0.232043        -0.216987
 C         1.321432         0.006697         0.104562
 C         2.079551        -0.487673         1.451866
 C         3.595206        -0.296717         1.051389
 C         3.269779         0.377602        -0.316363
 C         3.730116         1.282323        -1.406733
 O         2.489922         2.145123        -1.250407
 C         2.155630         1.427799        -0.014534
 O         2.248942        -0.534621        -0.926620
 H        -0.471058        -0.196509        -1.257342
 H        -0.167825        -1.319091        -0.000826
 H        -0.825435         0.254307         0.451005
 H         1.954430         0.072316         2.290377
 H         1.993591        -1.479818         1.796187
 H         4.139015         0.284078         1.713203
 H         4.097470        -1.228516         1.153541
 H         4.487447         2.064453        -1.127465
 H         3.768617         0.872524        -2.410205
 H         2.205446         2.084115         0.876416
