19
Iteration:  4588charge 0 multiplicity 1
 C        -0.205650        -0.211043        -0.158195
 C         1.250574         0.085470         0.251094
 C         1.864789         0.291069         1.616130
 C         3.453292         0.384949         1.258348
 C         3.271200         0.291866        -0.237366
 C         3.867954         0.775388        -1.503809
 O         2.668016         1.521014        -1.827204
 C         2.170975         1.401203        -0.394989
 O         2.394086        -0.833690        -0.487505
 H        -0.303756        -1.163001        -0.599486
 H        -0.931355        -0.124929         0.696676
 H        -0.623384         0.589833        -0.774498
 H         1.547552         1.276756         2.163857
 H         1.499828        -0.377208         2.361196
 H         4.048847         1.252474         1.508561
 H         4.057906        -0.387666         1.720828
 H         4.871453         1.417626        -1.276337
 H         4.067332         0.040022        -2.346357
 H         2.248372         2.325859         0.094729
