19
Iteration:  4220charge 0 multiplicity 1
 C        -0.017794        -0.197204        -0.175606
 C         1.373596         0.237643         0.149817
 C         1.827551         0.172012         1.602951
 C         3.485211         0.319777         1.338314
 C         3.267531         0.431693        -0.151679
 C         3.867028         0.713557        -1.449885
 O         2.600145         1.354386        -1.833590
 C         2.121877         1.448274        -0.390203
 O         2.276037        -0.652512        -0.520150
 H         0.009859        -1.272305        -0.435975
 H        -0.929125        -0.066434         0.556498
 H        -0.428042         0.243433        -1.096143
 H         1.375012         0.951293         2.335850
 H         1.617137        -0.934148         1.949470
 H         4.116969         1.221160         1.712676
 H         4.019026        -0.524110         1.819414
 H         4.682468         1.362801        -1.496303
 H         3.959430        -0.138583        -2.142518
 H         2.009955         2.502459        -0.136452
