19
Iteration:  3443charge 0 multiplicity 1
 C        -0.115357        -0.188813        -0.082323
 C         1.352721         0.204086         0.081300
 C         1.952775        -0.099937         1.522112
 C         3.516502        -0.003212         1.373713
 C         3.244445         0.484781        -0.152910
 C         3.837943         0.985531        -1.435004
 O         2.524137         1.576975        -1.800021
 C         2.074810         1.388721        -0.355536
 O         2.349037        -0.584054        -0.621995
 H        -0.165967        -0.742214        -1.008734
 H        -0.493494        -0.630946         0.850905
 H        -0.454705         0.921213        -0.205483
 H         1.603861         0.390304         2.412432
 H         1.788834        -1.096390         1.707688
 H         4.085784         0.565633         2.191598
 H         4.065520        -0.975148         1.259787
 H         4.554603         1.866240        -1.186357
 H         4.259483         0.304833        -2.253831
 H         1.965319         2.347523         0.052890
