19
Iteration:  1300
 C        -0.095000        -0.191471        -0.096177
 C         1.344122         0.012925         0.046534
 C         2.055257        -0.580463         1.329426
 C         3.596174        -0.301641         0.973303
 C         3.253504         0.400070        -0.307630
 C         3.813286         1.409490        -1.278592
 O         2.422964         2.017228        -1.243199
 C         2.111043         1.374605         0.043661
 O         2.272403        -0.447355        -0.975674
 H        -0.223243        -1.142956        -0.661536
 H        -0.572227        -0.265319         0.870037
 H        -0.470824         0.623072        -0.723396
 H         1.841177        -0.362444         2.410875
 H         1.928360        -1.619004         1.159259
 H         4.121363         0.361684         1.660998
 H         4.051378        -1.245331         0.943515
 H         4.604519         2.127132        -0.847889
 H         4.015021         0.992733        -2.247575
 H         2.179554         2.040676         0.901739
