19
Iteration:  3691charge 0 multiplicity 1
 C        -0.167924        -0.090582        -0.101255
 C         1.333401         0.183660         0.117618
 C         1.891806         0.056996         1.591529
 C         3.451737         0.183740         1.374890
 C         3.304487         0.337866        -0.168485
 C         3.854481         1.061441        -1.464623
 O         2.579265         1.421870        -1.845304
 C         2.137183         1.342545        -0.429105
 O         2.357118        -0.731864        -0.577197
 H        -0.115577        -0.943404        -0.846727
 H        -0.578854        -0.435191         0.842085
 H        -0.645492         0.846882        -0.476556
 H         1.478139         0.791678         2.266707
 H         1.627955        -0.876036         1.915126
 H         3.891304         1.105539         1.789628
 H         3.982674        -0.732669         1.620365
 H         4.703129         1.817593        -1.146528
 H         4.300603         0.279388        -2.017593
 H         2.261114         2.276997         0.248899
