19
Iteration:   675charge 0 multiplicity 1
 C        -0.081865        -0.158621        -0.119859
 C         1.355984        -0.020259         0.107357
 C         2.021276        -0.542071         1.379463
 C         3.586538        -0.230830         0.935428
 C         3.287923         0.386517        -0.372176
 C         3.693424         1.421605        -1.282381
 O         2.452384         2.175732        -1.159330
 C         2.244822         1.380332        -0.099484
 O         2.289904        -0.701299        -0.936981
 H        -0.347395        -1.009740        -0.831772
 H        -0.678485        -0.599374         0.768439
 H        -0.783745         0.679103        -0.449571
 H         1.781801         0.005703         2.318491
 H         1.723521        -1.607857         1.351304
 H         3.990969         0.530336         1.664441
 H         4.114791        -1.150772         0.892729
 H         4.461569         1.848094        -0.760980
 H         3.982988         1.064848        -2.284855
 H         2.130181         1.916470         0.784860
