19
Iteration:   655charge 0 multiplicity 1
 C        -0.136070        -0.171430        -0.110209
 C         1.354977        -0.031191         0.032042
 C         2.120173        -0.542999         1.333853
 C         3.605178        -0.297898         1.097870
 C         3.260372         0.341839        -0.287999
 C         3.788909         1.469364        -1.402639
 O         2.463784         2.046364        -1.253606
 C         2.067308         1.309289         0.055006
 O         2.292625        -0.476328        -0.991308
 H        -0.587855        -1.004340        -0.745839
 H        -0.662314        -0.292291         0.917232
 H        -0.595770         0.831942        -0.406025
 H         1.851904         0.013340         2.232270
 H         1.917904        -1.707178         1.371562
 H         4.029746         0.499978         1.741954
 H         4.178150        -1.265438         1.110714
 H         4.629826         2.055461        -1.029540
 H         3.983015         1.155236        -2.431718
 H         1.970536         1.775544         1.030617
