19
Iteration:  4288charge 0 multiplicity 1
 C        -0.214548        -0.167185        -0.120948
 C         1.320361         0.142268         0.079156
 C         1.846934         0.290549         1.591317
 C         3.490224         0.240509         1.268580
 C         3.257348         0.372640        -0.149615
 C         3.927269         0.930133        -1.431299
 O         2.622685         1.320996        -1.846338
 C         2.148426         1.348679        -0.435771
 O         2.349769        -0.726015        -0.463680
 H        -0.230187        -1.235153        -0.533936
 H        -0.659732        -0.019212         0.837875
 H        -0.669322         0.578995        -0.817292
 H         1.490279         1.265749         2.003794
 H         1.508873        -0.597456         2.320121
 H         3.996934         1.103002         1.766441
 H         4.100871        -0.589446         1.549963
 H         4.598974         1.663275        -1.191468
 H         4.352161         0.169229        -2.072599
 H         2.191015         2.323919        -0.033166
