19
Iteration:  4096
 C        -0.093767        -0.164211        -0.084193
 C         1.326935         0.197703         0.124815
 C         1.856335         0.132654         1.605774
 C         3.409654         0.312019         1.431185
 C         3.339433         0.439146        -0.133360
 C         3.891837         0.784723        -1.461554
 O         2.584552         1.354623        -1.880428
 C         2.144991         1.327987        -0.524327
 O         2.347194        -0.598473        -0.530339
 H        -0.485351        -0.892898         0.649625
 H        -0.808521         0.674059        -0.080441
 H        -0.202137        -0.587717        -1.114185
 H         1.363024         0.854619         2.385374
 H         1.713116        -0.880494         1.920872
 H         3.904641         1.099434         1.920231
 H         4.046916        -0.599384         1.612003
 H         4.577402         1.620813        -1.577511
 H         4.088659        -0.074675        -2.017108
 H         1.943804         2.410996        -0.139799
