19
Iteration:   370charge 0 multiplicity 1
 C        -0.145273        -0.181255        -0.058954
 C         1.388584        -0.049287         0.014662
 C         2.046487        -0.556399         1.409769
 C         3.575678        -0.285165         1.009427
 C         3.310054         0.429974        -0.254972
 C         3.777063         1.447974        -1.254949
 O         2.411471         2.004828        -1.297004
 C         2.101274         1.289704         0.017229
 O         2.320956        -0.440073        -1.096324
 H        -0.343149        -1.077936        -0.554565
 H        -0.554013        -0.184759         0.924133
 H        -0.475597         0.685192        -0.588626
 H         1.751373         0.027733         2.295632
 H         1.846955        -1.593214         1.544478
 H         4.167278         0.242260         1.855699
 H         3.957685        -1.270325         0.805496
 H         4.573087         2.114474        -0.808860
 H         4.148205         1.018931        -2.232700
 H         2.107173         1.962399         0.948736
