19
Iteration:    31charge 0 multiplicity 1
 C        -0.166792        -0.246271        -0.204201
 C         1.432004        -0.077068         0.033106
 C         2.091383        -0.563809         1.339903
 C         3.637198        -0.415739         0.898465
 C         3.267959         0.313083        -0.393093
 C         3.572956         1.526326        -1.293481
 O         2.499859         2.280594        -0.834890
 C         2.164436         1.300322         0.085747
 O         2.304155        -0.479260        -1.135890
 H        -0.709997        -0.541071         0.761090
 H        -0.399402         0.766801        -0.470476
 H        -0.330215        -0.923428        -1.023376
 H         1.788766        -0.065501         2.203921
 H         1.910272        -1.710459         1.345254
 H         4.255445         0.204619         1.462058
 H         4.081472        -1.462681         0.841988
 H         4.505691         2.038904        -1.294683
 H         3.467964         1.179193        -2.390392
 H         2.124744         1.765821         1.001052
