19
Iteration:  2597charge 0 multiplicity 1
 C        -0.089240        -0.177666        -0.029019
 C         1.348995         0.069848         0.079450
 C         2.057799        -0.655186         1.314103
 C         3.589887        -0.324707         1.042866
 C         3.330767         0.401009        -0.242875
 C         3.831783         1.431528        -1.271182
 O         2.399094         1.962622        -1.394091
 C         2.090255         1.457908        -0.086879
 O         2.272640        -0.495116        -0.886731
 H        -0.286686        -0.502385        -1.051028
 H        -0.518104        -0.832523         0.781459
 H        -0.749056         0.756584         0.083953
 H         1.821976        -0.289428         2.297396
 H         1.883701        -1.790833         1.212177
 H         3.982449         0.439586         1.778610
 H         4.204593        -1.163349         0.900932
 H         4.645277         2.250864        -0.999727
 H         4.072926         1.020370        -2.325026
 H         1.817713         2.302271         0.627428
