19
Iteration:  1531
 C        -0.039415        -0.257141        -0.141464
 C         1.367472        -0.008713         0.097307
 C         1.998269        -0.497250         1.373407
 C         3.569634        -0.330339         1.016517
 C         3.303492         0.314069        -0.351870
 C         3.656319         1.392012        -1.432590
 O         2.490361         2.263434        -1.179920
 C         2.176508         1.371935         0.029961
 O         2.291681        -0.589497        -0.929454
 H        -0.175773        -1.335883        -0.574543
 H        -0.886228        -0.243889         0.642180
 H        -0.444071         0.396528        -0.958913
 H         1.792735         0.222759         2.233055
 H         1.667576        -1.474678         1.794768
 H         4.125491         0.271991         1.852086
 H         4.165819        -1.340660         0.979296
 H         4.532714         2.041839        -1.324465
 H         3.581196         1.043463        -2.490262
 H         2.289208         1.932585         0.995807
