19
Iteration:    24
 C        -0.096960        -0.203991        -0.197344
 C         1.431616        -0.072440        -0.026924
 C         2.119974        -0.612313         1.330903
 C         3.631202        -0.446378         0.908171
 C         3.292309         0.368056        -0.362792
 C         3.638652         1.472266        -1.324158
 O         2.431533         2.291325        -0.832651
 C         2.147075         1.286259         0.123938
 O         2.251189        -0.488457        -1.168895
 H        -0.540172        -0.435890         0.729524
 H        -0.574785         0.726902        -0.589575
 H        -0.358791        -1.048489        -0.873082
 H         1.758527         0.082201         2.151053
 H         1.798869        -1.557850         1.642722
 H         4.196840         0.279841         1.585854
 H         4.151446        -1.361852         0.858308
 H         4.569563         2.101061        -1.236541
 H         3.505110         1.188723        -2.322899
 H         2.150581         1.794002         1.154038
