19
Iteration:  4297
 C        -0.208615        -0.232815        -0.144363
 C         1.300289         0.189315         0.105359
 C         1.853618         0.288183         1.599438
 C         3.540277         0.236088         1.350342
 C         3.313388         0.341544        -0.150150
 C         3.914195         0.827296        -1.439446
 O         2.609010         1.336211        -1.869490
 C         2.191040         1.446360        -0.392058
 O         2.316891        -0.675716        -0.510435
 H        -0.390597        -1.273577        -0.504228
 H        -0.879748        -0.227260         0.751991
 H        -0.705450         0.339003        -0.937187
 H         1.528853         1.247123         2.112623
 H         1.577383        -0.640281         2.268394
 H         4.009584         1.193618         1.745177
 H         3.877629        -0.709579         1.711299
 H         4.507449         1.753383        -1.379026
 H         4.421469         0.172228        -2.182979
 H         1.944884         2.502609        -0.168407
