19
Iteration:   791
 C        -0.078260        -0.075039        -0.126319
 C         1.451497        -0.047032         0.005647
 C         2.135335        -0.546065         1.358359
 C         3.631358        -0.227492         1.012864
 C         3.188385         0.369659        -0.300711
 C         3.706513         1.408034        -1.261009
 O         2.435025         2.020437        -1.159328
 C         2.088741         1.279433         0.074162
 O         2.247634        -0.538201        -1.116833
 H        -0.422798        -0.894703         0.479578
 H        -0.594755         0.783029         0.242816
 H        -0.290883        -0.333807        -1.149992
 H         1.775354         0.060766         2.260377
 H         2.016622        -1.581835         1.407915
 H         4.030736         0.581031         1.678517
 H         4.165606        -1.134813         0.854099
 H         4.457140         2.043425        -0.840919
 H         3.938102         1.031160        -2.255371
 H         2.063270         1.894496         1.073149
