19
Iteration:  4919charge 0 multiplicity 1
 C        -0.164381        -0.168825        -0.136978
 C         1.367230         0.085171         0.062444
 C         1.919188         0.302666         1.542296
 C         3.513376         0.315797         1.342381
 C         3.257522         0.308671        -0.206434
 C         3.834885         0.833422        -1.420205
 O         2.573951         1.520449        -1.792928
 C         2.146675         1.312684        -0.391161
 O         2.299562        -0.793194        -0.523224
 H        -0.416252        -1.089416         0.487333
 H        -0.820136         0.652346         0.074275
 H        -0.345795        -0.473832        -1.152815
 H         1.757889         1.367418         1.913961
 H         1.802323        -0.507597         2.355742
 H         4.118093         1.169330         1.720027
 H         3.921330        -0.620357         1.668441
 H         4.592357         1.484819        -1.028213
 H         4.338662         0.290875        -2.191617
 H         2.128434         2.291668         0.188119
