19
Iteration:  2300charge 0 multiplicity 1
 C        -0.131125        -0.092430        -0.113883
 C         1.330581         0.001781         0.102310
 C         2.090054        -0.543337         1.338965
 C         3.649795        -0.336695         1.053276
 C         3.263185         0.366920        -0.314560
 C         3.781391         1.455413        -1.265570
 O         2.414998         2.083870        -1.337757
 C         2.112364         1.288178        -0.074680
 O         2.321007        -0.613551        -0.911222
 H        -0.613636        -0.889482        -0.795159
 H        -0.656784        -0.331962         0.882007
 H        -0.690101         0.836684        -0.409120
 H         1.624832         0.052292         2.221737
 H         1.781178        -1.608653         1.525037
 H         4.256344         0.419006         1.604367
 H         4.341931        -1.169744         0.970313
 H         4.442145         2.110934        -0.654122
 H         4.189068         1.351676        -2.272694
 H         1.942230         2.125345         0.688860
