19
Iteration:  1233charge 0 multiplicity 1
 C        -0.127818        -0.200682        -0.262204
 C         1.372008         0.070377         0.026823
 C         2.174937        -0.524863         1.377097
 C         3.683235        -0.415609         0.989491
 C         3.247508         0.363098        -0.306157
 C         3.735801         1.400014        -1.325107
 O         2.364209         2.128551        -1.131304
 C         2.119507         1.362201         0.039954
 O         2.266014        -0.554376        -0.944478
 H        -0.624219        -1.150148         0.004881
 H        -0.684931         0.559736         0.335507
 H        -0.373994         0.044948        -1.320953
 H         1.901375         0.209436         2.184920
 H         1.854975        -1.526585         1.684407
 H         4.135580         0.435604         1.503785
 H         4.228561        -1.336633         1.037620
 H         4.489009         2.135182        -0.874784
 H         3.947575         0.978637        -2.276523
 H         2.124344         1.913732         0.949072
