19
Iteration:   783
 C        -0.118944        -0.124256        -0.129744
 C         1.359172        -0.026513         0.032107
 C         2.109166        -0.559703         1.388311
 C         3.629460        -0.192166         0.915250
 C         3.284477         0.409246        -0.356532
 C         3.726067         1.406649        -1.250102
 O         2.403693         2.005284        -1.131466
 C         2.131589         1.258239         0.017332
 O         2.256851        -0.534885        -1.047435
 H        -0.579596        -0.918592         0.428882
 H        -0.364779         0.836567         0.289142
 H        -0.375639        -0.105875        -1.196552
 H         1.750437        -0.115116         2.319923
 H         1.865435        -1.613154         1.442588
 H         4.040645         0.555945         1.619576
 H         4.307110        -1.027075         0.875527
 H         4.541766         1.931868        -0.600235
 H         4.255952         1.063674        -2.193893
 H         2.078871         1.909248         0.965542
