19
Iteration:  1378charge 0 multiplicity 1
 C        -0.045470        -0.299815        -0.201844
 C         1.367842         0.086124         0.126250
 C         2.069866        -0.628998         1.414919
 C         3.584907        -0.444796         1.038797
 C         3.306289         0.470511        -0.243192
 C         3.727174         1.339812        -1.437529
 O         2.402422         2.123716        -1.235373
 C         2.171974         1.427677         0.055236
 O         2.259159        -0.359891        -0.963650
 H        -0.345739        -1.367584        -0.177092
 H        -0.779209         0.201026         0.466649
 H        -0.245671         0.139066        -1.190159
 H         1.773894        -0.258551         2.496710
 H         1.796202        -1.683967         1.192617
 H         4.263825        -0.011353         1.740805
 H         3.825190        -1.475698         0.793579
 H         4.557524         2.036947        -1.149235
 H         3.848647         0.702713        -2.366082
 H         2.075111         2.210442         0.841340
