19
Iteration:   369
 C        -0.140356        -0.176150        -0.069275
 C         1.387570        -0.058958         0.012853
 C         2.048897        -0.557559         1.407952
 C         3.574961        -0.282731         1.007330
 C         3.309031         0.427380        -0.256439
 C         3.775499         1.445047        -1.254726
 O         2.413198         2.010175        -1.292837
 C         2.098294         1.284726         0.016969
 O         2.315910        -0.437432        -1.090091
 H        -0.359185        -1.085477        -0.532659
 H        -0.516381        -0.163757         0.934333
 H        -0.480374         0.681522        -0.591859
 H         1.753289         0.043627         2.272393
 H         1.851102        -1.584997         1.583022
 H         4.184373         0.222772         1.808646
 H         3.991321        -1.260828         0.868906
 H         4.558432         2.131316        -0.787285
 H         4.135652         1.021981        -2.239178
 H         2.113109         1.956144         0.917080
