19
Iteration:  3665
 C        -0.123579        -0.162801        -0.148431
 C         1.334550         0.207997         0.175687
 C         1.931254         0.044905         1.567657
 C         3.439477         0.103224         1.303971
 C         3.266031         0.474960        -0.140360
 C         3.844717         0.836074        -1.468769
 O         2.609446         1.505843        -1.832309
 C         2.053926         1.458604        -0.338784
 O         2.390383        -0.650283        -0.581351
 H         0.070058        -1.270263        -0.163717
 H        -0.817685         0.042843         0.715133
 H        -0.481230         0.194153        -1.105907
 H         1.566658         0.860668         2.146806
 H         1.653949        -0.955335         2.108711
 H         3.856935         0.906169         1.865405
 H         3.906225        -0.852325         1.443219
 H         4.652082         1.609086        -1.344204
 H         4.267719        -0.066020        -2.088894
 H         1.923802         2.376890         0.116256
