19
Iteration:  1680charge 0 multiplicity 1
 C        -0.050495        -0.264674        -0.265326
 C         1.349339         0.155074         0.092462
 C         2.085743        -0.516779         1.478245
 C         3.669726        -0.307726         0.943542
 C         3.270519         0.356381        -0.336960
 C         3.659615         1.389651        -1.384706
 O         2.460375         2.106545        -1.177668
 C         2.170611         1.385484         0.017068
 O         2.201761        -0.584678        -0.865401
 H        -0.007715        -1.285621        -0.624261
 H        -0.735912        -0.277447         0.526484
 H        -0.497417         0.385581        -0.986813
 H         1.601306         0.015919         2.415376
 H         1.856842        -1.591739         1.547130
 H         4.240836         0.317253         1.637033
 H         4.129682        -1.198719         0.664296
 H         4.565786         1.985903        -1.060857
 H         3.701498         0.972222        -2.374620
 H         2.234053         2.068370         0.912119
