19
Iteration:  2945
 C        -0.021259        -0.152145        -0.298446
 C         1.400754         0.092554         0.115683
 C         2.043279        -0.288587         1.555889
 C         3.571779        -0.237123         1.120447
 C         3.271037         0.341144        -0.258626
 C         3.689290         1.262016        -1.429023
 O         2.430145         1.982017        -1.384050
 C         2.156631         1.379987        -0.093431
 O         2.270577        -0.658139        -0.779507
 H         0.060295        -0.371623        -1.369272
 H        -0.529914        -1.030043         0.166895
 H        -0.887423         0.481348        -0.026835
 H         1.604828         0.340949         2.370707
 H         1.819048        -1.426956         1.778962
 H         4.383182         0.428127         1.601246
 H         3.985314        -1.235596         1.147807
 H         4.615017         1.919326        -1.235117
 H         3.755829         0.901979        -2.508645
 H         2.189181         2.138559         0.638762
