19
Iteration:  3300charge 0 multiplicity 1
 C        -0.202438        -0.135948        -0.089586
 C         1.306559         0.065783         0.077123
 C         1.999452        -0.121690         1.556135
 C         3.510163        -0.014016         1.191807
 C         3.288294         0.368197        -0.207121
 C         3.889635         1.157284        -1.387606
 O         2.535874         1.730101        -1.664071
 C         2.122994         1.303658        -0.345664
 O         2.319639        -0.682302        -0.665234
 H        -0.640364         0.137960         0.898361
 H        -0.556240         0.484286        -0.950890
 H        -0.377924        -1.204154        -0.274894
 H         1.694628         0.642125         2.340286
 H         1.791611        -1.010529         2.090583
 H         3.910380         0.817221         1.823035
 H         4.125754        -0.950250         1.316128
 H         4.501044         2.002526        -1.047777
 H         4.349923         0.740624        -2.234247
 H         2.085201         2.182413         0.250726
