19
Iteration:  2846
 C        -0.190449        -0.115706        -0.150689
 C         1.358765         0.000792         0.093713
 C         2.100512        -0.427919         1.441710
 C         3.609179        -0.180508         1.090794
 C         3.303044         0.307272        -0.337375
 C         3.816562         1.332354        -1.338846
 O         2.451457         1.952091        -1.338694
 C         2.052812         1.373116        -0.105576
 O         2.316983        -0.573071        -0.878036
 H        -0.787127        -0.706487         0.463070
 H        -0.676077         0.838444        -0.171700
 H        -0.490797        -0.646437        -0.993291
 H         1.926759         0.162656         2.358077
 H         1.786322        -1.519834         1.560224
 H         3.959656         0.494158         1.936535
 H         4.204369        -1.062858         1.076405
 H         4.721980         1.928427        -0.859146
 H         4.078718         0.958153        -2.379991
 H         1.924562         2.116776         0.641937
