19
Iteration:  4567
 C        -0.148595        -0.141624        -0.152156
 C         1.292643         0.178840         0.044550
 C         1.996104         0.219452         1.645148
 C         3.486794         0.312677         1.362787
 C         3.277759         0.406547        -0.149130
 C         3.921699         0.799335        -1.453956
 O         2.608739         1.409766        -1.850306
 C         2.077163         1.307360        -0.523942
 O         2.276245        -0.748589        -0.443662
 H        -0.304922        -1.147502        -0.518494
 H        -0.773811         0.009178         0.782241
 H        -0.675019         0.611693        -0.798097
 H         1.501021         1.011521         2.326274
 H         1.744370        -0.707572         2.158034
 H         3.948958         1.251180         1.793548
 H         4.181677        -0.487368         1.639324
 H         4.617856         1.724908        -1.357011
 H         4.389518        -0.015891        -2.076816
 H         1.918732         2.255781        -0.038983
