19
Iteration:  1736
 C        -0.099767        -0.177122        -0.035183
 C         1.412231         0.105066         0.087692
 C         2.070104        -0.554141         1.268016
 C         3.572020        -0.381582         0.974572
 C         3.314012         0.422882        -0.281099
 C         3.756146         1.453455        -1.321557
 O         2.359852         1.998410        -1.308817
 C         2.092250         1.343185         0.004055
 O         2.350066        -0.525416        -0.904425
 H        -0.410394        -1.207382        -0.189446
 H        -0.650063         0.303604         0.771324
 H        -0.441833         0.274572        -0.938398
 H         1.705904        -0.022102         2.239110
 H         1.894165        -1.658146         1.272261
 H         3.887894         0.118089         1.910885
 H         4.151339        -1.287629         0.877287
 H         4.527702         2.145809        -0.846077
 H         4.118610         1.184706        -2.318970
 H         2.000706         2.145187         0.765862
