19
Iteration:  3489
 C        -0.116362        -0.267973        -0.195365
 C         1.403416         0.114656         0.102827
 C         1.931750         0.117285         1.564521
 C         3.501926         0.138223         1.290489
 C         3.276583         0.229645        -0.234518
 C         3.859147         0.939569        -1.539101
 O         2.545504         1.847827        -1.633715
 C         2.131839         1.382424        -0.285504
 O         2.249378        -0.766129        -0.577380
 H        -0.287839        -0.023619        -1.269048
 H         0.056830        -1.364965        -0.145571
 H        -0.881741         0.129247         0.575017
 H         1.509723         0.898240         2.073830
 H         1.592950        -0.827430         2.119934
 H         4.138348         0.921310         1.719636
 H         3.980305        -0.742941         1.720872
 H         4.763743         1.529580        -1.334130
 H         3.964739         0.168453        -2.440479
 H         2.131868         2.252081         0.408037
