19
Iteration:   351
 C        -0.072866        -0.150091        -0.182196
 C         1.394151        -0.053234         0.036074
 C         2.117307        -0.545065         1.351906
 C         3.637743        -0.355657         1.015878
 C         3.242000         0.304140        -0.354921
 C         3.739173         1.470461        -1.265553
 O         2.415536         2.096002        -1.172607
 C         2.085845         1.375216        -0.022641
 O         2.278738        -0.564263        -0.951573
 H        -0.550862        -1.180665        -0.231978
 H        -0.560003         0.367945         0.691944
 H        -0.352252         0.490798        -1.087629
 H         1.835924         0.242886         2.109832
 H         1.803930        -1.536614         1.764107
 H         3.810681         0.563419         1.623333
 H         4.315406        -1.238314         0.890455
 H         4.528520         2.056134        -0.823372
 H         4.065960         1.266765        -2.286731
 H         1.820970         2.009636         0.885637
