19
Iteration:  3156
 C        -0.118401        -0.114959         0.005128
 C         1.339890         0.083987         0.113504
 C         1.946549        -0.269808         1.449288
 C         3.506165        -0.078577         1.144186
 C         3.277265         0.369353        -0.220849
 C         3.918884         1.218776        -1.334528
 O         2.460785         1.811703        -1.615426
 C         2.106239         1.383460        -0.298281
 O         2.363292        -0.677500        -0.771153
 H        -0.298305        -1.089237        -0.583722
 H        -0.671707        -0.178455         0.974096
 H        -0.561707         0.697140        -0.611702
 H         1.543546         0.398509         2.340395
 H         1.775985        -1.230745         1.878247
 H         3.915234         0.573416         1.955341
 H         4.068171        -1.095820         1.156316
 H         4.624989         1.907030        -0.990519
 H         4.207423         0.723959        -2.210064
 H         2.041405         2.134742         0.457060
