19
Iteration:   673
 C        -0.098511        -0.154384        -0.108498
 C         1.351098        -0.017108         0.078648
 C         2.027189        -0.549427         1.378276
 C         3.595583        -0.232524         0.949946
 C         3.292700         0.389025        -0.378817
 C         3.700735         1.413036        -1.275346
 O         2.444973         2.172067        -1.160952
 C         2.236735         1.362615        -0.092199
 O         2.288458        -0.696804        -0.940865
 H        -0.363304        -0.973874        -0.810468
 H        -0.632518        -0.580010         0.758019
 H        -0.747150         0.670672        -0.461835
 H         1.711506        -0.005607         2.315575
 H         1.772719        -1.556063         1.378059
 H         4.014372         0.540100         1.651809
 H         4.134978        -1.128968         0.912232
 H         4.531879         1.958939        -0.764744
 H         3.971048         1.044510        -2.298164
 H         2.153895         1.997071         0.816367
