19
Iteration:  3751charge 0 multiplicity 1
 C        -0.120910        -0.220577        -0.181616
 C         1.376200         0.189128         0.107374
 C         1.887212         0.146520         1.647773
 C         3.456312         0.218538         1.370707
 C         3.297422         0.359890        -0.187664
 C         3.923904         0.760338        -1.529121
 O         2.543851         1.548520        -1.758816
 C         2.127940         1.406365        -0.417277
 O         2.343471        -0.651081        -0.529396
 H        -0.617353         0.338839        -0.957594
 H        -0.251067        -1.261194        -0.603694
 H        -0.924943        -0.108289         0.587954
 H         1.493109         1.059686         2.172711
 H         1.581668        -0.834754         2.276376
 H         3.924399         1.090906         1.877331
 H         4.020388        -0.666420         1.800936
 H         4.725541         1.441179        -1.585856
 H         4.012331        -0.121530        -2.265170
 H         2.016783         2.467176         0.076257
