19
Iteration:  4847charge 0 multiplicity 1
 C        -0.131621        -0.106839        -0.193269
 C         1.341419         0.229149         0.126899
 C         1.961684         0.082779         1.606143
 C         3.452176         0.336912         1.340950
 C         3.261525         0.442661        -0.166298
 C         3.866429         0.771314        -1.451132
 O         2.618160         1.339708        -1.839175
 C         2.154200         1.394866        -0.363723
 O         2.258995        -0.716590        -0.468841
 H        -0.041814        -1.148445        -0.442454
 H        -0.820774         0.067933         0.713954
 H        -0.561518         0.455724        -1.056834
 H         1.436222         0.841707         2.083657
 H         1.781455        -0.882124         1.890500
 H         3.764050         1.294928         1.745054
 H         4.250089        -0.449417         1.546242
 H         4.632926         1.583382        -1.521959
 H         4.147585         0.105638        -2.263861
 H         2.057677         2.427396        -0.065935
