19
Iteration:  4829
 C        -0.122266        -0.071920        -0.095774
 C         1.293976         0.115892         0.162976
 C         1.835631         0.157437         1.688864
 C         3.433133         0.337386         1.327328
 C         3.311036         0.285488        -0.209404
 C         3.933898         0.899030        -1.491115
 O         2.565182         1.470920        -1.909483
 C         2.200680         1.296574        -0.517452
 O         2.327102        -0.785518        -0.467635
 H        -0.374851        -1.129152        -0.332551
 H        -0.682144         0.321414         0.772700
 H        -0.197492         0.599641        -1.005460
 H         1.492497         0.934388         2.492134
 H         1.624174        -0.944929         2.037449
 H         3.729109         1.359239         1.649880
 H         3.819060        -0.500398         1.926032
 H         4.612148         1.669030        -1.203321
 H         4.408639         0.195980        -2.242497
 H         2.209636         2.363321         0.037784
