19
Iteration:    27
 C        -0.135372        -0.224155        -0.199428
 C         1.447312        -0.078568         0.001465
 C         2.107545        -0.585889         1.335325
 C         3.633946        -0.437361         0.900891
 C         3.280368         0.343255        -0.374577
 C         3.600763         1.491658        -1.303416
 O         2.461370         2.285818        -0.825713
 C         2.154670         1.292081         0.091585
 O         2.274294        -0.485120        -1.162664
 H        -0.616140        -0.483009         0.749217
 H        -0.495156         0.792319        -0.538529
 H        -0.349959        -1.024803        -0.963173
 H         1.741234         0.068692         2.229466
 H         1.845731        -1.652723         1.495963
 H         4.252146         0.293840         1.541933
 H         4.111472        -1.428126         0.877780
 H         4.566972         2.090983        -1.300925
 H         3.503707         1.187350        -2.351408
 H         2.146194         1.844598         1.149436
