19
Iteration:   802charge 0 multiplicity 1
 C        -0.053284        -0.139326        -0.113448
 C         1.372950        -0.015503         0.030387
 C         2.133258        -0.602369         1.321367
 C         3.604839        -0.343875         1.076214
 C         3.299870         0.337639        -0.291710
 C         3.713109         1.399221        -1.307205
 O         2.383795         2.127087        -1.197166
 C         2.096365         1.361076         0.033460
 O         2.275314        -0.505655        -1.054321
 H        -0.463670        -0.922681         0.498484
 H        -0.559260         0.788234         0.020767
 H        -0.317055        -0.394729        -1.130011
 H         1.667101        -0.020155         2.201920
 H         1.925839        -1.583347         1.623571
 H         4.223084         0.361937         1.694182
 H         4.241159        -1.205461         1.139766
 H         4.528935         2.049380        -1.180303
 H         3.725387         1.070517        -2.328431
 H         2.021891         2.057338         0.984562
