19
Iteration:  1644
 C        -0.093985        -0.173099        -0.047905
 C         1.343694        -0.014499         0.073118
 C         2.011814        -0.577995         1.407688
 C         3.617078        -0.257835         0.970577
 C         3.286845         0.378285        -0.313238
 C         3.722115         1.419607        -1.311815
 O         2.487932         2.079724        -1.203711
 C         2.065370         1.328314        -0.031451
 O         2.332223        -0.552046        -1.035088
 H        -0.272508        -1.228054        -0.169200
 H        -0.558644         0.464594         0.739843
 H        -0.391550         0.202514        -1.066613
 H         1.833795         0.220554         2.257009
 H         1.740443        -1.609132         1.724729
 H         4.051258         0.378020         1.669627
 H         4.213858        -1.131904         0.861040
 H         4.563731         2.061338        -1.198363
 H         3.873603         1.117731        -2.373216
 H         1.935221         1.951455         0.903137
