19
Iteration:  4986charge 0 multiplicity 1
 C        -0.069870        -0.134480        -0.121379
 C         1.348795         0.205301         0.135544
 C         1.890383         0.091113         1.584157
 C         3.392651         0.282356         1.368741
 C         3.355571         0.448159        -0.131392
 C         3.918023         0.736841        -1.539956
 O         2.517335         1.365894        -1.811679
 C         2.087403         1.392110        -0.353350
 O         2.393209        -0.601161        -0.577461
 H        -0.371617        -0.631973         0.793243
 H        -0.747809         0.713578        -0.305357
 H        -0.257745        -0.851083        -0.894198
 H         1.377771         0.949885         2.163680
 H         1.540373        -0.923998         1.923907
 H         3.810201         1.067557         1.940694
 H         3.972897        -0.626335         1.604109
 H         4.557737         1.548936        -1.678098
 H         4.271677        -0.047778        -2.183622
 H         1.758131         2.392462         0.041758
