19
Iteration:    96
 C        -0.160047        -0.187710        -0.042978
 C         1.343834        -0.007261         0.073460
 C         2.075692        -0.769604         1.225676
 C         3.607314        -0.492049         0.840783
 C         3.349839         0.494670        -0.259270
 C         3.843958         1.581681        -1.206051
 O         2.331065         2.021852        -1.155906
 C         2.155400         1.390770         0.110470
 O         2.302888        -0.347714        -1.069129
 H        -0.406306        -1.310583        -0.168486
 H        -0.676729         0.137762         0.880141
 H        -0.637391         0.274485        -0.906879
 H         1.821731        -0.327552         2.181594
 H         1.751219        -1.896078         1.296075
 H         4.067959         0.024781         1.646991
 H         4.262168        -1.366359         0.512223
 H         4.511362         2.405526        -0.967070
 H         4.116618         1.202932        -2.272971
 H         1.999592         2.057025         0.986105
