19
Iteration:  1533charge 0 multiplicity 1
 C        -0.059039        -0.260127        -0.151299
 C         1.392382        -0.015287         0.104842
 C         2.009005        -0.485879         1.379195
 C         3.570593        -0.328185         1.021522
 C         3.294594         0.322328        -0.338896
 C         3.670019         1.383806        -1.454160
 O         2.482057         2.272320        -1.158816
 C         2.178950         1.358796         0.010441
 O         2.292123        -0.600822        -0.930096
 H        -0.210151        -1.297640        -0.544514
 H        -0.852850        -0.204404         0.654436
 H        -0.392911         0.415858        -0.947770
 H         1.681706         0.278091         2.208379
 H         1.685080        -1.503921         1.800622
 H         4.057784         0.193444         1.820622
 H         4.125674        -1.302104         0.920737
 H         4.509527         2.080835        -1.286635
 H         3.581610         1.076859        -2.548205
 H         2.299339         1.924431         0.980368
