19
Iteration:  1908charge 0 multiplicity 1
 C        -0.070469        -0.207549        -0.021323
 C         1.331723         0.073787         0.025929
 C         1.976764        -0.589979         1.278557
 C         3.584891        -0.259974         1.017190
 C         3.318228         0.431387        -0.302294
 C         3.782929         1.378933        -1.336797
 O         2.482521         1.980246        -1.272620
 C         2.105809         1.384273         0.023312
 O         2.313830        -0.494558        -0.944074
 H        -0.531783        -1.199464        -0.361920
 H        -0.589515        -0.214186         0.942868
 H        -0.545545         0.591684        -0.616796
 H         1.507725        -0.214143         2.142472
 H         1.974210        -1.635451         1.300199
 H         4.091119         0.436838         1.736943
 H         4.116362        -1.193601         1.111113
 H         4.532379         2.119779        -0.949350
 H         4.047408         0.920641        -2.290728
 H         1.847840         2.193415         0.725898
