19
Iteration:  4432
 C        -0.100001        -0.175932        -0.055942
 C         1.324586         0.213612         0.163188
 C         1.850866         0.157322         1.599201
 C         3.375226         0.179290         1.314520
 C         3.299772         0.477713        -0.163399
 C         3.863491         0.845389        -1.424687
 O         2.603435         1.364660        -1.913234
 C         2.133036         1.383214        -0.445042
 O         2.426369        -0.627922        -0.539952
 H        -0.558311        -0.472249         0.908134
 H        -0.676656         0.710327        -0.420275
 H        -0.100334        -1.019973        -0.738122
 H         1.521583         1.010208         2.288471
 H         1.517845        -0.850838         2.024110
 H         3.699780         0.977052         1.892640
 H         3.937431        -0.754925         1.422240
 H         4.768913         1.517694        -1.530592
 H         4.040186        -0.097505        -1.955405
 H         1.965126         2.310314        -0.010291
