19
Iteration:  3020
 C        -0.188533        -0.248104        -0.027651
 C         1.318971         0.140236         0.189404
 C         1.966793        -0.428961         1.473073
 C         3.503791        -0.106960         1.138196
 C         3.269776         0.396854        -0.267526
 C         3.880936         1.262918        -1.387771
 O         2.556569         1.791285        -1.548400
 C         2.161569         1.460608        -0.192572
 O         2.309945        -0.519709        -0.818519
 H        -0.821925         0.632325         0.187900
 H        -0.512227        -0.545910        -1.106704
 H        -0.430133        -1.169872         0.592501
 H         1.533209         0.024838         2.324236
 H         1.901118        -1.570127         1.403149
 H         4.096353         0.500722         1.843214
 H         4.034389        -1.018467         0.990212
 H         4.479270         2.099459        -1.173432
 H         4.249377         0.748982        -2.289073
 H         2.196122         2.335996         0.486508
