19
Iteration:    60charge 0 multiplicity 1
 C        -0.106741        -0.256673        -0.215690
 C         1.440456         0.017917         0.097502
 C         2.117740        -0.798997         1.244275
 C         3.634181        -0.459448         0.850387
 C         3.235376         0.445774        -0.283260
 C         3.735361         1.486530        -1.314899
 O         2.436930         2.294316        -1.017476
 C         2.178257         1.466922         0.100113
 O         2.141729        -0.504978        -0.977922
 H        -0.358587        -1.119131         0.460770
 H        -0.825986         0.573021        -0.043812
 H        -0.140121        -0.577635        -1.288723
 H         1.933995        -0.417983         2.318886
 H         1.816332        -1.884551         1.103397
 H         4.084826         0.215620         1.658271
 H         4.389476        -1.277584         0.641540
 H         4.630359         2.123561        -1.021645
 H         3.682903         0.984469        -2.305809
 H         2.252628         2.046088         1.161552
