19
Iteration:  1036
 C        -0.079628        -0.217667        -0.077233
 C         1.292378         0.107612         0.137792
 C         2.122974        -0.729673         1.289780
 C         3.563211        -0.349414         1.040128
 C         3.292698         0.437470        -0.307116
 C         3.832088         1.476046        -1.283729
 O         2.452288         2.105342        -1.305163
 C         2.109476         1.364045        -0.088648
 O         2.217456        -0.481131        -0.923793
 H        -0.284381        -1.137826         0.422086
 H        -0.656893         0.595348         0.391648
 H        -0.392704        -0.252990        -1.096917
 H         1.777660        -0.436744         2.296622
 H         1.888551        -1.866661         1.123507
 H         4.019151         0.111862         1.887180
 H         4.124972        -1.292868         1.009644
 H         4.641442         2.017948        -0.871822
 H         3.985985         1.220859        -2.341705
 H         2.124904         2.106993         0.800503
