19
Iteration:   456
 C        -0.039243        -0.148294        -0.214852
 C         1.405538        -0.023997         0.009399
 C         2.052399        -0.461434         1.407147
 C         3.638194        -0.331749         1.047925
 C         3.276969         0.338160        -0.321002
 C         3.664309         1.452502        -1.356888
 O         2.400929         2.178948        -1.142513
 C         2.150125         1.395161         0.001515
 O         2.273056        -0.721066        -0.967951
 H        -0.463270        -0.821046        -0.902435
 H        -0.571707        -0.487539         0.669586
 H        -0.530007         0.748830        -0.569795
 H         1.798564         0.083436         2.328532
 H         1.863477        -1.477893         1.593229
 H         4.326711         0.204179         1.713530
 H         4.035214        -1.273802         1.088321
 H         4.481474         2.123050        -1.030992
 H         3.727267         1.118490        -2.426832
 H         2.313755         1.916330         0.917944
