19
Iteration:  2354
 C        -0.111356        -0.232974        -0.183715
 C         1.400439         0.101312         0.071674
 C         2.089584        -0.570733         1.444332
 C         3.562242        -0.405990         1.093528
 C         3.316179         0.430706        -0.231004
 C         3.668889         1.331472        -1.440383
 O         2.395554         2.034025        -1.314588
 C         2.219608         1.449766         0.025323
 O         2.297952        -0.445895        -0.899680
 H        -0.279715        -0.727092        -1.185090
 H        -0.596109        -1.011726         0.451428
 H        -0.636928         0.728674        -0.247240
 H         1.793680        -0.027260         2.309671
 H         1.729813        -1.592866         1.404521
 H         4.083329         0.210869         1.798347
 H         4.175288        -1.217686         0.822851
 H         4.546630         2.002016        -1.150685
 H         3.770944         0.831264        -2.417906
 H         2.116941         2.262042         0.782098
