19
Iteration:  2143
 C        -0.109345        -0.193356        -0.156955
 C         1.349318         0.038071         0.087541
 C         2.054742        -0.643147         1.342239
 C         3.675240        -0.275191         1.042788
 C         3.243218         0.460009        -0.262609
 C         3.764496         1.321750        -1.333140
 O         2.451001         1.975594        -1.337346
 C         2.145248         1.451543         0.014420
 O         2.246410        -0.430109        -0.859984
 H        -0.327915        -1.288012        -0.031278
 H        -0.625579         0.165540         0.775972
 H        -0.391696         0.344354        -1.142623
 H         1.799187        -0.352263         2.336303
 H         1.869732        -1.674878         1.092443
 H         4.115290         0.233106         1.809154
 H         4.139700        -1.247874         0.839583
 H         4.453663         2.141623        -1.281381
 H         3.777052         0.772364        -2.254808
 H         2.102572         2.372470         0.697612
