19
Iteration:   225charge 0 multiplicity 1
 C        -0.144431        -0.139670        -0.093645
 C         1.366500        -0.023121         0.050409
 C         2.138774        -0.620854         1.269914
 C         3.585692        -0.369526         0.906465
 C         3.244493         0.397045        -0.349738
 C         3.758971         1.529740        -1.172257
 O         2.424293         2.035587        -1.189585
 C         2.084467         1.281182         0.115574
 O         2.301448        -0.458070        -1.064371
 H        -0.606112         0.864597        -0.220493
 H        -0.230757        -0.672880        -1.029994
 H        -0.355935        -0.795506         0.703454
 H         1.966660         0.100754         2.053506
 H         1.804959        -1.649554         1.677219
 H         4.108791         0.328233         1.541778
 H         4.276813        -1.323422         0.900484
 H         4.518320         2.133680        -0.605363
 H         3.897430         1.274083        -2.247348
 H         2.136131         1.947794         1.056676
