19
Iteration:  4420charge 0 multiplicity 1
 C        -0.154117        -0.153678        -0.067868
 C         1.329811         0.172452         0.129503
 C         1.896211         0.096080         1.598206
 C         3.453699         0.195553         1.417664
 C         3.289614         0.517446        -0.108303
 C         3.988427         0.882020        -1.532325
 O         2.577856         1.337726        -1.897495
 C         2.091724         1.397724        -0.491087
 O         2.327403        -0.646544        -0.495842
 H        -0.735122        -0.435577         0.855866
 H        -0.633715         0.687120        -0.516072
 H        -0.339285        -0.942455        -0.821254
 H         1.487866         0.950394         2.212392
 H         1.521309        -0.887129         2.106357
 H         4.049883         0.815018         1.994346
 H         3.848300        -0.801483         1.580882
 H         4.648996         1.866856        -1.487081
 H         4.451526         0.074797        -2.145479
 H         2.024466         2.404062        -0.348041
