19
Iteration:  4439charge 0 multiplicity 1
 C        -0.054493        -0.170981        -0.068452
 C         1.386654         0.222299         0.115996
 C         1.803643         0.173128         1.603056
 C         3.384591         0.220516         1.286935
 C         3.248956         0.422585        -0.131870
 C         3.833068         0.764803        -1.462193
 O         2.604695         1.428236        -1.860551
 C         2.137326         1.439492        -0.433758
 O         2.429827        -0.683732        -0.541257
 H        -0.586543        -0.512539         0.850999
 H        -0.822775         0.499628        -0.326871
 H        -0.084942        -1.100781        -0.713560
 H         1.594397         0.988945         2.209935
 H         1.582869        -0.830330         2.064102
 H         3.867416         1.183812         1.731125
 H         3.836482        -0.725401         1.524611
 H         4.749547         1.533823        -1.426611
 H         4.125748        -0.128880        -2.073915
 H         1.864615         2.402988         0.156484
