19
Iteration:  4510
 C        -0.084632        -0.115357        -0.154936
 C         1.331079         0.137113         0.072831
 C         1.908448         0.214707         1.591828
 C         3.464383         0.257157         1.386125
 C         3.355684         0.413678        -0.135844
 C         3.808892         0.835409        -1.484618
 O         2.580671         1.440570        -1.848360
 C         2.115647         1.373930        -0.425921
 O         2.322158        -0.787024        -0.459141
 H        -0.340659        -1.068521         0.270712
 H        -0.837097         0.633820         0.292669
 H        -0.111833        -0.281806        -1.217054
 H         1.346255         1.169709         2.014944
 H         1.603470        -0.666888         2.116069
 H         3.923894         1.145157         1.744128
 H         4.057103        -0.621205         1.701396
 H         4.657321         1.677944        -1.626005
 H         4.157898        -0.081691        -2.028769
 H         1.857218         2.314780        -0.050835
