19
Iteration:  4762
 C        -0.068729        -0.330477        -0.120591
 C         1.336160         0.303928         0.191838
 C         1.882490         0.180983         1.707989
 C         3.387723         0.112889         1.381790
 C         3.270270         0.410872        -0.173886
 C         3.934097         0.789137        -1.532697
 O         2.621732         1.467482        -1.977884
 C         2.183449         1.483335        -0.434556
 O         2.250540        -0.614887        -0.456444
 H        -0.583022        -0.964443         0.552753
 H        -0.900478         0.412342        -0.369184
 H         0.122181        -0.800384        -1.122577
 H         1.438673         0.920548         2.490607
 H         1.587796        -0.826816         2.109850
 H         3.847040         1.005908         1.798072
 H         3.970221        -0.835900         1.586707
 H         4.693166         1.539788        -1.503052
 H         4.051369        -0.006867        -2.285241
 H         2.262350         2.595302        -0.058280
