19
Iteration:  2268charge 0 multiplicity 1
 C        -0.068047        -0.286932        -0.160424
 C         1.377402         0.074458         0.100438
 C         2.038817        -0.548885         1.335315
 C         3.542856        -0.379171         1.073234
 C         3.238466         0.426552        -0.252780
 C         3.742841         1.310722        -1.372736
 O         2.438407         2.030515        -1.281601
 C         2.217417         1.451183         0.054857
 O         2.285007        -0.402534        -0.953702
 H        -0.126864        -1.412714        -0.354405
 H        -0.427541         0.010633         0.836139
 H        -0.605817         0.340797        -0.890625
 H         1.564636        -0.034672         2.280798
 H         1.734409        -1.649171         1.379407
 H         4.079859         0.414491         1.660727
 H         4.141832        -1.196386         0.749078
 H         4.556155         1.971769        -1.244091
 H         3.820798         0.810949        -2.331404
 H         2.156962         2.232904         0.838312
