19
Iteration:  1401charge 0 multiplicity 1
 C        -0.052212        -0.231571        -0.277831
 C         1.345137         0.103096         0.147708
 C         2.090920        -0.653403         1.350786
 C         3.625534        -0.386317         0.912614
 C         3.251063         0.481130        -0.258717
 C         3.656261         1.374079        -1.405060
 O         2.477213         2.131705        -1.203132
 C         2.160281         1.421001         0.107874
 O         2.265017        -0.525436        -0.828471
 H        -0.324767        -1.253773         0.075974
 H        -0.835674         0.413424         0.158706
 H        -0.086244        -0.135633        -1.361999
 H         1.779696        -0.055272         2.313606
 H         1.654365        -1.692866         1.241046
 H         4.028496         0.263901         1.621673
 H         4.274645        -1.260215         0.670889
 H         4.661405         1.880637        -1.204175
 H         3.490652         0.796801        -2.398966
 H         2.105341         2.160208         0.963339
