19
Iteration:  1397
 C        -0.061997        -0.227686        -0.287775
 C         1.343565         0.092067         0.158154
 C         2.074149        -0.664682         1.354822
 C         3.598268        -0.395855         0.900659
 C         3.254919         0.450829        -0.270146
 C         3.690359         1.352648        -1.427627
 O         2.472021         2.116324        -1.188424
 C         2.141967         1.476935         0.095484
 O         2.278912        -0.495794        -0.801928
 H        -0.154303        -1.278183         0.114633
 H        -0.807668         0.395608         0.245850
 H        -0.081802        -0.176023        -1.401345
 H         1.771342        -0.169898         2.237119
 H         1.757767        -1.669108         1.307750
 H         4.088472         0.244550         1.734738
 H         4.265230        -1.169035         0.552720
 H         4.582904         1.937478        -1.312185
 H         3.523259         0.929941        -2.355072
 H         2.090617         2.128622         0.942193
