19
Iteration:  3574charge 0 multiplicity 1
 C        -0.125811        -0.104550        -0.128478
 C         1.314950         0.171295         0.170838
 C         1.873835        -0.048241         1.584342
 C         3.478862         0.092932         1.296586
 C         3.304225         0.451475        -0.183382
 C         3.886353         0.976603        -1.429889
 O         2.514474         1.525208        -1.786321
 C         2.155298         1.386843        -0.433042
 O         2.388161        -0.689958        -0.559129
 H        -0.807300         0.261234         0.648384
 H        -0.466982         0.233897        -1.108287
 H        -0.406774        -1.226228        -0.112341
 H         1.571571         0.610034         2.524860
 H         1.668370        -1.066403         1.812579
 H         3.866965         1.062708         1.787712
 H         4.104056        -0.846678         1.516649
 H         4.431523         1.921271        -1.356489
 H         4.386197         0.223758        -2.120301
 H         2.109520         2.430850        -0.100944
