19
Iteration:  2465
 C        -0.152900        -0.158502        -0.071057
 C         1.385444         0.024946         0.117390
 C         2.062134        -0.610926         1.384159
 C         3.556984        -0.296707         1.010787
 C         3.330955         0.462884        -0.240391
 C         3.807155         1.413480        -1.402662
 O         2.462200         1.871419        -1.422516
 C         2.080191         1.436625        -0.006475
 O         2.307060        -0.429058        -0.844596
 H        -0.651674         0.788291        -0.431186
 H        -0.375308        -0.909868        -0.925561
 H        -0.665883        -0.421374         0.839234
 H         1.519825        -0.155967         2.186507
 H         1.816537        -1.713242         1.487122
 H         4.154591         0.066645         1.880130
 H         4.129539        -1.131273         0.802827
 H         4.514321         2.206126        -1.002008
 H         4.019986         0.670092        -2.215457
 H         1.940588         2.367858         0.642251
