19
Iteration:  1002charge 0 multiplicity 1
 C        -0.186931        -0.166055        -0.158220
 C         1.350905         0.022046         0.083043
 C         2.095556        -0.486800         1.339702
 C         3.633785        -0.334115         1.007199
 C         3.288692         0.330482        -0.328454
 C         3.746057         1.420364        -1.291434
 O         2.397842         2.121056        -1.173526
 C         2.086509         1.222123         0.051824
 O         2.374800        -0.508985        -1.037665
 H        -0.447170        -1.160738         0.126832
 H        -0.631693         0.515557         0.594440
 H        -0.437358         0.095671        -1.167101
 H         1.847804         0.228683         2.139354
 H         1.914087        -1.574865         1.789014
 H         4.182044         0.288187         1.677851
 H         4.048537        -1.362862         0.771130
 H         4.570993         2.025857        -1.001390
 H         3.744079         1.168853        -2.369445
 H         2.217548         1.992031         0.865237
