19
Iteration:  2415
 C        -0.122692        -0.234414        -0.134459
 C         1.358305         0.033444         0.078882
 C         2.073086        -0.411933         1.451677
 C         3.560726        -0.234460         0.997318
 C         3.258120         0.344689        -0.321667
 C         3.814135         1.426716        -1.350367
 O         2.455339         2.026229        -1.244893
 C         2.173022         1.287632        -0.037001
 O         2.247322        -0.576874        -0.967801
 H        -0.347723         0.485984        -0.898250
 H        -0.438875        -1.247636        -0.343566
 H        -0.689993         0.082185         0.812730
 H         1.614299         0.221080         2.326846
 H         1.629641        -1.403561         1.642125
 H         4.208126         0.498411         1.567730
 H         4.225925        -1.231395         0.983108
 H         4.636267         1.954218        -0.857179
 H         3.967617         1.083710        -2.379303
 H         2.121282         1.929756         0.825233
