19
Iteration:  1396charge 0 multiplicity 1
 C        -0.064732        -0.228023        -0.287669
 C         1.345550         0.088385         0.159374
 C         2.069514        -0.663092         1.354697
 C         3.591708        -0.395016         0.901823
 C         3.255525         0.440948        -0.272783
 C         3.698279         1.346619        -1.430203
 O         2.468608         2.114134        -1.183710
 C         2.137555         1.488793         0.089717
 O         2.281712        -0.486510        -0.798750
 H        -0.117998        -1.267082         0.102944
 H        -0.794194         0.387341         0.257874
 H        -0.088309        -0.187784        -1.396930
 H         1.778919        -0.210862         2.240287
 H         1.783364        -1.687565         1.332076
 H         4.109130         0.220944         1.756356
 H         4.259722        -1.162915         0.531331
 H         4.568297         1.961098        -1.345439
 H         3.550168         0.945020        -2.378044
 H         2.089790         2.130380         0.943333
