19
Iteration:  1580
 C        -0.070897        -0.171783        -0.171135
 C         1.376692        -0.011290         0.134275
 C         2.116218        -0.610743         1.317946
 C         3.641395        -0.333266         1.029158
 C         3.246841         0.412678        -0.289027
 C         3.786186         1.376813        -1.320402
 O         2.336896         2.027211        -1.277774
 C         2.145134         1.433861         0.016269
 O         2.231189        -0.464506        -0.946112
 H        -0.551137        -1.073663         0.063660
 H        -0.719228         0.492913         0.316855
 H        -0.122696         0.075421        -1.232329
 H         1.995936        -0.148943         2.390540
 H         1.829959        -1.660916         1.525020
 H         4.214408         0.226207         1.741433
 H         4.158560        -1.221597         0.923693
 H         4.497297         2.107751        -0.769697
 H         4.066185         0.985488        -2.330726
 H         2.181703         2.166029         0.838997
