19
Iteration:  3559charge 0 multiplicity 1
 C        -0.058919        -0.140280        -0.103085
 C         1.372040         0.215557         0.079999
 C         1.903520        -0.087985         1.541651
 C         3.433689         0.132604         1.337041
 C         3.308722         0.414860        -0.169929
 C         3.907720         0.981164        -1.462023
 O         2.484763         1.417914        -1.827916
 C         2.137054         1.459885        -0.315673
 O         2.332812        -0.602379        -0.567780
 H        -0.672368         0.692639         0.344276
 H        -0.339531        -0.120350        -1.167454
 H        -0.276601        -1.052177         0.387513
 H         1.303041         0.460699         2.378804
 H         1.712782        -1.179545         1.697593
 H         4.020186         0.736478         2.001791
 H         3.906286        -0.852458         1.437470
 H         4.593370         1.800394        -1.192851
 H         4.225038         0.367771        -2.228288
 H         1.951483         2.474715         0.261067
