19
Iteration:  1551
 C        -0.081491        -0.189968        -0.221737
 C         1.341625        -0.058573        -0.026213
 C         2.081773        -0.434429         1.483640
 C         3.554426        -0.309345         1.011440
 C         3.282863         0.414215        -0.385765
 C         3.716796         1.431289        -1.445690
 O         2.439206         2.149404        -1.078709
 C         2.129949         1.332558         0.023613
 O         2.328167        -0.625485        -0.909533
 H        -0.537597        -1.241037        -0.304426
 H        -0.533240         0.246512         0.710610
 H        -0.547859         0.378115        -1.059207
 H         1.937030         0.036259         2.416602
 H         1.861216        -1.464378         1.638619
 H         4.464323         0.244158         1.518031
 H         3.911235        -1.394121         0.882645
 H         4.697279         1.882333        -1.322429
 H         3.718632         0.939724        -2.400014
 H         1.986045         1.870564         0.956819
