19
Iteration:  3231
 C        -0.028848        -0.224275        -0.254575
 C         1.367880         0.154959         0.142380
 C         1.983312        -0.232311         1.567929
 C         3.503858        -0.058027         1.268395
 C         3.263864         0.436661        -0.184694
 C         3.766596         0.984944        -1.547579
 O         2.467651         1.806839        -1.551495
 C         2.166930         1.460134        -0.265644
 O         2.317802        -0.561842        -0.647868
 H        -0.484870         0.598772        -0.935945
 H        -0.150678        -1.189988        -0.781754
 H        -0.730078        -0.261581         0.632787
 H         1.713447         0.303811         2.486533
 H         1.629825        -1.228165         1.760909
 H         4.121662         0.656119         1.857817
 H         4.010305        -1.070043         1.243495
 H         4.658508         1.653385        -1.436391
 H         3.941979         0.193084        -2.296881
 H         1.987948         2.262320         0.438834
