19
Iteration:  3365
 C        -0.105603        -0.265757        -0.214495
 C         1.345220         0.113978         0.173585
 C         1.915324        -0.047631         1.565897
 C         3.471024         0.040524         1.221954
 C         3.307809         0.422600        -0.192889
 C         3.749668         0.978170        -1.554422
 O         2.587374         1.794237        -1.594941
 C         2.168962         1.394985        -0.292249
 O         2.332065        -0.668518        -0.586311
 H        -0.376602        -1.336507         0.070276
 H        -0.886735         0.389574         0.274228
 H        -0.064637        -0.173096        -1.324251
 H         1.566889         0.776016         2.228323
 H         1.716098        -0.991304         1.916266
 H         4.125386         0.706997         1.850226
 H         3.966418        -0.980472         1.360459
 H         4.719723         1.623960        -1.507706
 H         3.689741         0.171301        -2.265606
 H         2.154864         2.256832         0.304111
