19
Iteration:  2253charge 0 multiplicity 1
 C        -0.038730        -0.297410        -0.128936
 C         1.342136         0.155770         0.099868
 C         2.000621        -0.577635         1.361935
 C         3.620463        -0.358008         1.008767
 C         3.350517         0.433820        -0.243306
 C         3.703054         1.259847        -1.419781
 O         2.467694         2.093525        -1.251977
 C         2.135617         1.449312         0.022232
 O         2.245827        -0.398932        -0.916049
 H        -0.046901        -1.445802        -0.229233
 H        -1.029770        -0.040939         0.421337
 H        -0.399534        -0.140633        -1.308360
 H         1.814983        -0.146787         2.319728
 H         1.704097        -1.593029         1.444329
 H         4.090817         0.068698         1.850753
 H         4.059079        -1.397223         1.052818
 H         4.655301         1.951295        -1.253409
 H         3.809439         0.768814        -2.418006
 H         2.108877         2.195107         0.895106
