19
Iteration:  3646
 C        -0.061079        -0.295030        -0.151490
 C         1.358189         0.192543         0.095666
 C         1.859824         0.101074         1.663465
 C         3.477458         0.113886         1.327703
 C         3.277241         0.397122        -0.149571
 C         3.866495         0.877578        -1.528422
 O         2.577242         1.644066        -1.762657
 C         2.184129         1.409622        -0.441345
 O         2.277585        -0.669039        -0.501695
 H        -0.420931        -1.329864         0.153832
 H        -0.716043         0.518928         0.218136
 H        -0.280722        -0.269996        -1.211197
 H         1.559241         0.809850         2.363526
 H         1.542201        -0.896177         1.955597
 H         4.004769         0.871829         1.872159
 H         3.872981        -0.861437         1.430786
 H         4.772840         1.576889        -1.614895
 H         3.904476         0.090092        -2.303392
 H         2.088898         2.419476         0.066463
