19
Iteration:  3460charge 0 multiplicity 1
 C        -0.117198        -0.228361        -0.105418
 C         1.367651         0.141428         0.143744
 C         1.909212        -0.060551         1.591272
 C         3.449019         0.029872         1.259246
 C         3.327734         0.416129        -0.168570
 C         3.900003         0.961536        -1.511903
 O         2.527792         1.644839        -1.717130
 C         2.124465         1.493626        -0.312508
 O         2.333043        -0.617335        -0.642281
 H        -0.220423        -0.676121        -1.131972
 H        -0.344687        -1.110921         0.507614
 H        -0.869680         0.493444        -0.011024
 H         1.585801         0.838838         2.223206
 H         1.476352        -1.080418         1.972237
 H         3.953062         0.785308         1.829873
 H         3.999387        -0.896010         1.483315
 H         4.718266         1.667550        -1.508170
 H         4.009195         0.115454        -2.122003
 H         1.941430         2.473254         0.245294
