19
Iteration:  1583
 C        -0.062072        -0.184397        -0.168444
 C         1.394240         0.005998         0.131207
 C         2.105068        -0.628249         1.349269
 C         3.609270        -0.313108         1.008247
 C         3.252135         0.398979        -0.286475
 C         3.828972         1.389418        -1.323420
 O         2.335145         2.003968        -1.309801
 C         2.137365         1.432625         0.045739
 O         2.215023        -0.439836        -0.936246
 H        -0.576141        -1.130810         0.119051
 H        -0.678989         0.569218         0.337428
 H        -0.102098         0.050682        -1.238805
 H         1.997422        -0.294525         2.366691
 H         1.915917        -1.685394         1.406431
 H         4.207580         0.242438         1.834458
 H         4.078624        -1.325235         0.865525
 H         4.446464         2.204657        -0.851857
 H         4.037143         1.073663        -2.324180
 H         2.230512         2.161793         0.839303
