19
Iteration:   829
 C        -0.112614        -0.257794        -0.172605
 C         1.298647         0.094612         0.145461
 C         2.035105        -0.629200         1.352168
 C         3.543634        -0.394022         0.949014
 C         3.302555         0.483897        -0.258215
 C         3.713018         1.463228        -1.458466
 O         2.447349         2.076308        -1.245931
 C         2.189261         1.459606         0.104340
 O         2.350650        -0.518546        -0.841000
 H        -0.299507        -1.144953         0.478045
 H        -0.866773         0.589360        -0.060705
 H        -0.122876        -0.626234        -1.229467
 H         1.636125        -0.387487         2.306129
 H         1.797506        -1.767419         1.330405
 H         4.316525        -0.092081         1.635518
 H         3.939288        -1.371662         0.518815
 H         4.685672         2.172132        -1.448538
 H         3.710875         1.066514        -2.546149
 H         2.345356         2.110690         0.969480
