19
Iteration:  4648charge 0 multiplicity 1
 C        -0.075095        -0.194225        -0.129287
 C         1.273342         0.203167         0.207668
 C         1.895437         0.198972         1.660902
 C         3.379110         0.225149         1.296936
 C         3.359726         0.501320        -0.154627
 C         3.974781         0.782804        -1.500481
 O         2.593720         1.353283        -1.872398
 C         2.118338         1.368382        -0.440436
 O         2.268957        -0.621675        -0.519471
 H        -0.198312        -1.373601        -0.205520
 H        -0.753208         0.077142         0.721710
 H        -0.356978         0.273763        -1.100708
 H         1.571639         1.048774         2.214701
 H         1.651577        -0.744859         2.242088
 H         3.925002         1.115974         1.803909
 H         3.939513        -0.753662         1.406566
 H         4.792999         1.426933        -1.620125
 H         4.116999        -0.157856        -1.998028
 H         1.950239         2.439816         0.004999
