19
Iteration:  2297
 C        -0.135731        -0.110512        -0.089944
 C         1.340627        -0.010463         0.104766
 C         2.064593        -0.538467         1.350265
 C         3.640558        -0.338821         1.075856
 C         3.283783         0.385980        -0.325515
 C         3.778843         1.431571        -1.282079
 O         2.418075         2.085604        -1.331233
 C         2.135819         1.277725        -0.068634
 O         2.314377        -0.586732        -0.916735
 H        -0.441888        -0.901072        -0.833838
 H        -0.696612        -0.225981         0.885339
 H        -0.771634         0.805029        -0.456627
 H         1.625944        -0.048656         2.159260
 H         1.750289        -1.528225         1.485770
 H         4.151584         0.393594         1.592460
 H         4.376083        -1.132447         0.800015
 H         4.514653         2.150266        -0.702862
 H         4.202064         1.361262        -2.300875
 H         1.817200         2.079295         0.653481
