19
Iteration:   221charge 0 multiplicity 1
 C        -0.156503        -0.154062        -0.094182
 C         1.349754         0.027891         0.040808
 C         2.132763        -0.641525         1.285559
 C         3.601756        -0.417074         0.918762
 C         3.275365         0.399003        -0.328093
 C         3.732749         1.529812        -1.214544
 O         2.411866         2.032274        -1.168793
 C         2.084656         1.305637         0.097662
 O         2.337059        -0.435795        -1.051952
 H        -0.682638         0.824734        -0.336089
 H        -0.243031        -0.764071        -1.046238
 H        -0.546102        -0.805868         0.809290
 H         1.967368         0.126082         2.099103
 H         1.784591        -1.621572         1.555408
 H         4.136038         0.349334         1.546069
 H         4.260601        -1.318756         0.893429
 H         4.636547         2.085569        -0.697496
 H         3.880039         1.240807        -2.261675
 H         2.120824         1.851438         0.988221
