19
Iteration:  2957charge 0 multiplicity 1
 C        -0.090298        -0.153699        -0.262839
 C         1.345176         0.027271         0.131813
 C         2.030350        -0.340738         1.457544
 C         3.558034        -0.166741         1.134193
 C         3.274859         0.334198        -0.296145
 C         3.720809         1.287279        -1.485519
 O         2.424062         1.934787        -1.362213
 C         2.219499         1.398680        -0.060269
 O         2.294410        -0.659558        -0.769671
 H        -0.196047         0.116782        -1.347592
 H        -0.248567        -1.213028        -0.109169
 H        -0.616568         0.690504         0.210190
 H         1.874645         0.507965         2.207473
 H         1.716680        -1.327604         1.996395
 H         3.936286         0.584802         1.928838
 H         4.107282        -1.136480         1.109033
 H         4.534361         2.058473        -1.146991
 H         3.954640         0.681367        -2.421979
 H         2.283418         2.093687         0.752292
