19
Iteration:  4383charge 0 multiplicity 1
 C        -0.083500        -0.063844        -0.153982
 C         1.329097         0.102323         0.221408
 C         1.900595         0.191724         1.550986
 C         3.418229         0.333483         1.288602
 C         3.227858         0.295498        -0.225995
 C         3.912532         0.874642        -1.401724
 O         2.511826         1.410558        -1.839420
 C         2.173319         1.323963        -0.459165
 O         2.352513        -0.779403        -0.473403
 H        -0.677291        -0.499302         0.655286
 H        -0.362854         0.959766        -0.526293
 H        -0.036835        -0.725251        -1.033056
 H         1.493539         1.084737         2.018550
 H         1.714015        -0.677596         2.192811
 H         3.940470         1.331001         1.594338
 H         3.972751        -0.563189         1.633936
 H         4.483356         1.880472        -1.070641
 H         4.528177         0.318749        -2.180084
 H         2.123890         2.168568         0.366425
