19
Iteration:  2241
 C        -0.081356        -0.340956        -0.226353
 C         1.312649         0.133427         0.190531
 C         2.093323        -0.524834         1.402859
 C         3.551852        -0.405314         1.014174
 C         3.254312         0.436647        -0.251415
 C         3.734954         1.370634        -1.427541
 O         2.527098         2.106735        -1.230472
 C         2.147794         1.437976         0.004604
 O         2.233794        -0.495300        -0.897869
 H        -0.164404        -1.386998         0.165253
 H        -0.816494         0.349333         0.298236
 H        -0.101269        -0.160234        -1.404319
 H         1.842968        -0.126212         2.338570
 H         1.815351        -1.552079         1.332258
 H         4.169573         0.225428         1.619455
 H         4.045429        -1.360552         0.703886
 H         4.672100         2.067248        -1.422437
 H         3.635775         0.762819        -2.363254
 H         2.108806         2.221650         0.805035
