19
Iteration:  4926
 C        -0.179329        -0.189757        -0.132966
 C         1.341074         0.106559         0.123191
 C         1.956414         0.254209         1.589807
 C         3.497407         0.319654         1.306086
 C         3.251092         0.306316        -0.193374
 C         3.849704         0.876667        -1.387806
 O         2.641645         1.504927        -1.774262
 C         2.127108         1.318868        -0.465097
 O         2.279324        -0.821438        -0.553415
 H        -0.644386        -0.865918         0.649811
 H        -0.677632         0.784921         0.093411
 H        -0.279461        -0.566725        -1.205447
 H         1.708911         1.217100         1.992193
 H         1.634474        -0.452978         2.355828
 H         3.949502         1.317085         1.596906
 H         4.146746        -0.566792         1.513418
 H         4.515354         1.785992        -1.186974
 H         4.260611         0.207564        -2.181857
 H         2.079168         2.364819         0.024910
