19
Iteration:  2022charge 0 multiplicity 1
 C        -0.124142        -0.163922        -0.069384
 C         1.406055         0.126683         0.091395
 C         2.033282        -0.646230         1.309429
 C         3.546830        -0.286628         1.038744
 C         3.353285         0.425016        -0.286889
 C         3.713975         1.385304        -1.352899
 O         2.426044         2.019009        -1.343271
 C         2.114078         1.423878        -0.022176
 O         2.322699        -0.524327        -0.899446
 H        -0.415415        -1.246519         0.029122
 H        -0.584481         0.341476         0.849799
 H        -0.419009         0.156451        -1.117681
 H         1.707506        -0.572581         2.397422
 H         2.070435        -1.778324         1.193683
 H         3.950727         0.224981         1.828749
 H         4.095086        -1.184678         1.158581
 H         4.543151         1.953159        -0.988745
 H         4.079125         0.917634        -2.289519
 H         2.018051         2.216958         0.810585
