19
Iteration:  3900charge 0 multiplicity 1
 C        -0.033677        -0.259896        -0.216979
 C         1.345929         0.150338         0.146399
 C         1.876340         0.258302         1.574930
 C         3.469791         0.219878         1.407101
 C         3.292049         0.454997        -0.123023
 C         3.884880         0.700586        -1.552700
 O         2.539686         1.519407        -1.847940
 C         2.152992         1.464142        -0.446628
 O         2.304826        -0.700755        -0.423818
 H        -0.727831        -0.697543         0.603210
 H        -0.709873         0.564202        -0.435922
 H        -0.098200        -0.998582        -1.072187
 H         1.504530         1.223434         2.125999
 H         1.499938        -0.593861         2.051893
 H         3.927404         0.948063         2.072391
 H         3.794591        -0.844135         1.548277
 H         4.814660         1.379785        -1.516018
 H         4.037202        -0.216393        -2.083374
 H         2.138649         2.364280         0.074939
