19
Iteration:  1673charge 0 multiplicity 1
 C        -0.085213        -0.256674        -0.261482
 C         1.314330         0.079760         0.023898
 C         2.095821        -0.468816         1.479872
 C         3.619600        -0.248663         0.968263
 C         3.309851         0.331566        -0.367196
 C         3.645939         1.378268        -1.362451
 O         2.459852         2.139483        -1.185414
 C         2.205309         1.377336         0.033060
 O         2.195408        -0.591944        -0.866692
 H        -0.112922        -1.343618        -0.574984
 H        -0.639904        -0.197734         0.748348
 H        -0.435450         0.425185        -1.055195
 H         1.707002        -0.081882         2.419951
 H         1.981642        -1.568698         1.574947
 H         4.400127         0.255049         1.676461
 H         4.217546        -1.314560         0.760655
 H         4.539016         1.966669        -0.972613
 H         3.740713         1.173578        -2.465015
 H         2.389220         1.725433         1.048555
