19
Iteration:  4631
 C        -0.148392        -0.272536        -0.112015
 C         1.369176         0.257569         0.100135
 C         1.857105         0.244913         1.567760
 C         3.486355         0.216002         1.363821
 C         3.222084         0.400567        -0.136645
 C         3.834100         0.688656        -1.525756
 O         2.612992         1.497651        -1.858738
 C         2.167857         1.475223        -0.465967
 O         2.379113        -0.705010        -0.429667
 H        -0.027497        -1.271290        -0.383141
 H        -0.785550        -0.166383         0.786193
 H        -0.605243         0.218407        -0.952891
 H         1.454170         1.138700         2.185177
 H         1.476614        -0.559506         2.158949
 H         3.970467         0.906402         1.980809
 H         3.934066        -0.711594         1.686409
 H         4.689774         1.457207        -1.558356
 H         3.998929        -0.201138        -2.187632
 H         2.115993         2.468592        -0.108678
