19
Iteration:  1921
 C        -0.149641        -0.210849        -0.110146
 C         1.401755         0.059191         0.050656
 C         2.013794        -0.600527         1.327039
 C         3.654486        -0.332675         1.036585
 C         3.292558         0.431923        -0.165486
 C         3.751059         1.311305        -1.309822
 O         2.429385         2.022254        -1.329517
 C         2.131301         1.415637        -0.020719
 O         2.286465        -0.393394        -0.953479
 H        -0.022594        -1.321026        -0.350947
 H        -0.459167         0.020777         0.945454
 H        -0.771226         0.252708        -0.894176
 H         1.752837        -0.149010         2.282512
 H         1.652743        -1.658423         1.290329
 H         4.097400         0.301097         1.807886
 H         4.249045        -1.148342         0.809221
 H         4.597888         1.962926        -1.172246
 H         3.917610         0.726576        -2.224838
 H         1.933748         2.176627         0.827910
