19
Iteration:  3571
 C        -0.126866        -0.117984        -0.134163
 C         1.335571         0.177390         0.175841
 C         1.862999        -0.049919         1.567607
 C         3.484460         0.101905         1.296605
 C         3.296347         0.444112        -0.171479
 C         3.901486         0.964408        -1.444951
 O         2.490266         1.506993        -1.797048
 C         2.175363         1.401058        -0.410984
 O         2.380649        -0.671395        -0.562316
 H        -0.700344         0.397023         0.674529
 H        -0.451340         0.124716        -1.143596
 H        -0.352283        -1.182694        -0.023051
 H         1.535776         0.551035         2.575314
 H         1.699481        -1.109594         1.717959
 H         3.878285         1.009080         1.824901
 H         3.960880        -0.881254         1.512384
 H         4.473210         1.899550        -1.310109
 H         4.407689         0.327323        -2.051156
 H         2.012992         2.527931        -0.082383
