19
Iteration:  2884
 C        -0.091719        -0.199755        -0.024624
 C         1.379838         0.094514         0.077913
 C         2.021094        -0.472148         1.366156
 C         3.485871        -0.248761         1.151369
 C         3.257443         0.341568        -0.280149
 C         3.840141         1.299654        -1.357913
 O         2.474606         1.954241        -1.437531
 C         2.097802         1.443374        -0.170702
 O         2.316463        -0.537810        -0.866269
 H        -0.101373        -1.332531         0.176493
 H        -0.543072         0.203878         0.903979
 H        -0.422359         0.227898        -1.015518
 H         1.557400         0.117654         2.189178
 H         1.679964        -1.470896         1.557556
 H         3.931902         0.543667         1.755299
 H         4.157914        -1.165380         1.166648
 H         4.550287         1.968064        -0.857037
 H         4.147056         1.026514        -2.360129
 H         2.045877         2.219178         0.683652
