19
Iteration:  3835charge 0 multiplicity 1
 C        -0.126056        -0.043608        -0.091829
 C         1.347297         0.144196         0.068165
 C         1.837406         0.171789         1.599902
 C         3.404508         0.293575         1.328714
 C         3.291818         0.301194        -0.231285
 C         3.915577         0.904681        -1.407098
 O         2.607151         1.454199        -1.888572
 C         2.107858         1.238314        -0.423717
 O         2.383652        -0.796378        -0.479958
 H        -0.412157         0.435149         0.881160
 H        -0.549819         0.527206        -0.903855
 H        -0.338260        -1.135649        -0.185564
 H         1.448025         1.048223         2.187527
 H         1.523288        -0.703170         2.019059
 H         3.651312         1.312157         1.693477
 H         4.090168        -0.474582         1.815823
 H         4.539800         1.854510        -1.062050
 H         4.355008         0.353480        -2.233178
 H         2.052710         2.205135         0.052397
