19
Iteration:  2761
 C        -0.163654        -0.143217        -0.127377
 C         1.387505        -0.013958         0.109536
 C         2.071551        -0.477895         1.398622
 C         3.603109        -0.235386         1.027839
 C         3.201409         0.353644        -0.318502
 C         3.784197         1.349520        -1.319867
 O         2.506625         2.021220        -1.307735
 C         2.045394         1.354488        -0.039153
 O         2.320273        -0.552398        -0.919083
 H        -0.636737         0.777704         0.088761
 H        -0.249178        -0.592434        -1.066285
 H        -0.494293        -0.986947         0.549379
 H         1.779738         0.111028         2.286595
 H         1.886272        -1.586130         1.577425
 H         4.085416         0.594749         1.591287
 H         4.193097        -1.117896         1.082071
 H         4.561409         2.036437        -1.111112
 H         3.990423         0.921177        -2.296163
 H         2.045104         2.197761         0.645065
