19
Iteration:  1757
 C        -0.108013        -0.154298        -0.081123
 C         1.382844        -0.041932         0.079618
 C         2.033283        -0.636600         1.464633
 C         3.637595        -0.246955         0.974489
 C         3.263596         0.340634        -0.341829
 C         3.772731         1.491705        -1.241993
 O         2.432303         2.105657        -1.306534
 C         2.112487         1.377285        -0.056933
 O         2.248151        -0.615092        -1.015100
 H        -0.574689        -1.120519         0.068643
 H        -0.467369         0.603709         0.585566
 H        -0.551460         0.106263        -1.008941
 H         1.691853        -0.111265         2.423977
 H         2.138442        -1.732859         1.563232
 H         4.079622         0.518919         1.592931
 H         4.243467        -1.064702         0.890926
 H         4.433842         2.178068        -0.702813
 H         4.187417         1.363543        -2.223717
 H         2.338392         1.952618         0.878622
