19
Iteration:  4123
 C        -0.123072        -0.091885        -0.056343
 C         1.295002         0.154639         0.114475
 C         1.923067         0.047212         1.553943
 C         3.346583         0.322124         1.298847
 C         3.287154         0.389171        -0.198131
 C         3.991131         0.897396        -1.432629
 O         2.600193         1.351422        -1.917322
 C         2.122985         1.403444        -0.484343
 O         2.340956        -0.722501        -0.388545
 H        -0.642600        -0.538763         0.815157
 H        -0.679212         0.909236        -0.292365
 H        -0.420071        -0.731162        -0.905284
 H         1.523646         0.814609         2.287979
 H         1.712296        -1.061690         1.935898
 H         3.766854         1.287946         1.830783
 H         4.118002        -0.407024         1.573754
 H         4.580583         1.830349        -1.262498
 H         4.487902         0.079376        -2.080865
 H         1.932966         2.364203        -0.071993
