19
Iteration:  1497
 C        -0.120984        -0.291229        -0.087879
 C         1.300625         0.010466         0.159137
 C         2.065862        -0.627515         1.292153
 C         3.630504        -0.295262         1.021335
 C         3.267615         0.497010        -0.245358
 C         3.824263         1.310976        -1.334575
 O         2.448844         2.012692        -1.324150
 C         2.137764         1.455315         0.023677
 O         2.199944        -0.341658        -0.946164
 H        -0.093511        -1.331573        -0.653402
 H        -0.888771        -0.281230         0.774510
 H        -0.339202         0.440371        -0.951342
 H         1.981240        -0.248548         2.320835
 H         1.939498        -1.707218         1.313528
 H         4.342624         0.132094         1.871908
 H         3.983410        -1.302690         0.606728
 H         4.605892         2.003666        -1.034848
 H         4.120549         0.791589        -2.251173
 H         2.237866         2.167698         0.880162
