19
Iteration:  3920charge 0 multiplicity 1
 C        -0.070584        -0.207758        -0.230186
 C         1.253446         0.211009         0.154887
 C         1.849178         0.352752         1.675713
 C         3.387647         0.208605         1.323887
 C         3.308862         0.298516        -0.178115
 C         3.816416         0.869304        -1.583502
 O         2.625475         1.483124        -1.783682
 C         2.200926         1.376885        -0.459267
 O         2.419216        -0.811601        -0.412397
 H        -0.393967        -0.995747         0.547248
 H        -0.822683         0.563889        -0.161842
 H        -0.089451        -0.777443        -1.173671
 H         1.390061         1.331813         2.071894
 H         1.438422        -0.465347         2.321314
 H         3.899171         1.061266         1.721864
 H         3.800610        -0.681839         1.723123
 H         4.675142         1.496306        -1.538070
 H         3.952300         0.155161        -2.318213
 H         2.042578         2.335175        -0.004715
