19
Iteration:    29
 C        -0.153978        -0.235546        -0.203852
 C         1.444939        -0.079374         0.018565
 C         2.098729        -0.569832         1.338964
 C         3.636027        -0.425192         0.899847
 C         3.273349         0.327109        -0.383252
 C         3.583916         1.509744        -1.293592
 O         2.481173         2.282328        -0.827765
 C         2.160094         1.297270         0.084429
 O         2.289610        -0.482036        -1.151914
 H        -0.673887        -0.516708         0.777520
 H        -0.438547         0.786691        -0.501542
 H        -0.338081        -0.976987        -0.996371
 H         1.763176         0.007799         2.219666
 H         1.875332        -1.714805         1.412753
 H         4.251685         0.249335         1.491111
 H         4.100833        -1.470406         0.867617
 H         4.531975         2.061421        -1.311953
 H         3.489337         1.177528        -2.391693
 H         2.136923         1.815763         1.074197
