19
Iteration:  2547
 C        -0.018364        -0.225482        -0.174164
 C         1.339691         0.023196         0.036363
 C         2.086335        -0.398564         1.422498
 C         3.607967        -0.335480         1.023189
 C         3.244524         0.409170        -0.305831
 C         3.719093         1.322709        -1.397256
 O         2.476590         2.067185        -1.229771
 C         2.030765         1.371171         0.003948
 O         2.291831        -0.555206        -0.904980
 H        -0.349087        -0.066036        -1.194004
 H        -0.302452        -1.194281         0.170310
 H        -0.581933         0.458429         0.479881
 H         1.834357         0.259457         2.335250
 H         1.856504        -1.439195         1.512449
 H         4.074667         0.257438         1.774709
 H         4.097297        -1.358090         0.839706
 H         4.512264         1.921218        -1.066437
 H         4.017989         1.032443        -2.347263
 H         1.970634         2.042998         0.838943
