19
Iteration:  2890
 C        -0.060628        -0.216215        -0.022840
 C         1.353314         0.121214         0.055271
 C         1.998641        -0.442990         1.386651
 C         3.525855        -0.265380         1.161550
 C         3.231134         0.393591        -0.275007
 C         3.853509         1.262810        -1.371349
 O         2.470687         1.941405        -1.420684
 C         2.122657         1.401082        -0.139300
 O         2.315378        -0.508392        -0.876664
 H        -0.306840        -1.258968        -0.197218
 H        -0.618954         0.058466         0.869806
 H        -0.578586         0.120661        -0.904787
 H         1.641435         0.159747         2.235732
 H         1.828956        -1.564096         1.584705
 H         4.038127         0.513132         1.803784
 H         3.999798        -1.220788         1.205779
 H         4.482933         2.146735        -0.980091
 H         4.161026         0.933189        -2.402985
 H         2.029825         2.238392         0.490657
