19
Iteration:  1874charge 0 multiplicity 1
 C        -0.141578        -0.159291        -0.121275
 C         1.321975         0.003713         0.054686
 C         2.062614        -0.594944         1.447573
 C         3.647660        -0.257400         1.025539
 C         3.367514         0.281604        -0.330207
 C         3.756244         1.456706        -1.315227
 O         2.442730         2.120637        -1.315269
 C         2.082792         1.356177        -0.020473
 O         2.250652        -0.613430        -0.937698
 H        -0.371696        -0.971293        -0.846414
 H        -0.548432        -0.075304         0.867554
 H        -0.436969         0.797756        -0.650904
 H         1.626525        -0.047824         2.223017
 H         1.905988        -1.603014         1.583788
 H         4.116164         0.544678         1.653752
 H         4.209327        -1.255429         1.067796
 H         4.458007         2.151142        -0.742069
 H         4.221199         1.352435        -2.299191
 H         2.102051         2.052104         0.791321
