19
Iteration:  4250
 C        -0.167833        -0.067975        -0.096408
 C         1.337975         0.108382         0.062988
 C         1.809976         0.160216         1.620597
 C         3.455903         0.337158         1.456086
 C         3.333241         0.313832        -0.194416
 C         3.850695         0.903031        -1.489483
 O         2.638504         1.428507        -1.920396
 C         2.129535         1.303897        -0.527464
 O         2.402598        -0.784501        -0.417859
 H        -0.603261        -0.975304        -0.407367
 H        -0.657182         0.000028         0.928630
 H        -0.612500         0.656403        -0.774772
 H         1.333800         1.019734         2.158888
 H         1.465675        -0.725572         2.057766
 H         3.830719         1.330884         1.632836
 H         4.053100        -0.543445         1.824476
 H         4.712501         1.696161        -1.221065
 H         4.244251         0.285327        -2.329100
 H         2.139133         2.320818         0.044423
