19
Iteration:  4027
 C        -0.110134        -0.226376        -0.241280
 C         1.284970         0.178675         0.168402
 C         1.836417         0.300234         1.666586
 C         3.497921         0.362501         1.273860
 C         3.287838         0.338310        -0.125607
 C         3.833868         0.814878        -1.510494
 O         2.610515         1.451025        -1.840420
 C         2.198864         1.314422        -0.445637
 O         2.347626        -0.776621        -0.425857
 H        -0.157421        -1.271755        -0.572049
 H        -0.850316        -0.152150         0.522329
 H        -0.456572         0.459241        -0.986436
 H         1.504857         1.239950         1.969442
 H         1.407833        -0.484664         2.350471
 H         4.003655         1.232502         1.728617
 H         3.932710        -0.506554         1.694886
 H         4.636997         1.590720        -1.373783
 H         4.020034        -0.159260        -2.084827
 H         2.225060         2.347233         0.072536
