19
Iteration:   651charge 0 multiplicity 1
 C        -0.128189        -0.165433        -0.112701
 C         1.343342        -0.055098         0.063346
 C         2.129092        -0.574828         1.341686
 C         3.606520        -0.326287         1.108741
 C         3.275538         0.392248        -0.280334
 C         3.766403         1.461408        -1.411779
 O         2.467088         1.999699        -1.257208
 C         2.087912         1.325123         0.044707
 O         2.296038        -0.417198        -1.015842
 H        -0.631526        -0.981865        -0.661019
 H        -0.638340        -0.300108         0.857360
 H        -0.604109         0.764759        -0.479157
 H         1.885639        -0.003071         2.275524
 H         1.863875        -1.577550         1.360670
 H         3.980134         0.467225         1.798273
 H         4.125071        -1.241436         1.138564
 H         4.593777         2.003364        -0.994965
 H         3.976055         1.093488        -2.441803
 H         1.822329         1.876021         0.958510
