19
Iteration:  3146charge 0 multiplicity 1
 C        -0.165551        -0.122094        -0.073490
 C         1.353939         0.082186         0.080064
 C         2.003709        -0.317331         1.498588
 C         3.480290        -0.124796         1.215552
 C         3.282445         0.406691        -0.260792
 C         3.845618         1.227091        -1.377726
 O         2.512900         1.792790        -1.658639
 C         2.105963         1.375662        -0.199808
 O         2.354478        -0.617334        -0.724260
 H        -0.451881        -1.175183        -0.326361
 H        -0.432454         0.085684         0.953954
 H        -0.585119         0.631998        -0.724658
 H         1.645404         0.295929         2.436685
 H         1.842881        -1.366301         1.511921
 H         4.055776         0.691173         1.689705
 H         4.018747        -1.121349         1.376314
 H         4.549993         1.966862        -1.075194
 H         4.199887         0.664496        -2.181478
 H         1.950698         2.284828         0.360873
