19
Iteration:  4971
 C        -0.124268        -0.149634        -0.014380
 C         1.375120         0.219813         0.038121
 C         1.835435         0.037192         1.539206
 C         3.452080         0.200891         1.410650
 C         3.284606         0.476384        -0.138153
 C         3.867740         0.888513        -1.477951
 O         2.532316         1.358451        -1.855570
 C         2.189658         1.462661        -0.509740
 O         2.386871        -0.682972        -0.494520
 H        -0.615480        -0.614279         0.953325
 H        -0.695527         0.754641        -0.252129
 H        -0.234074        -0.867564        -0.874840
 H         1.507700         0.693367         2.320775
 H         1.644670        -1.034659         1.813712
 H         3.667200         1.271851         1.795529
 H         4.057567        -0.568871         1.880879
 H         4.817911         1.510357        -1.535136
 H         3.998629        -0.081099        -2.042319
 H         2.133280         2.580815        -0.146121
