19
Iteration:  2246
 C        -0.055362        -0.334282        -0.194891
 C         1.298173         0.177244         0.175065
 C         2.071413        -0.550363         1.371170
 C         3.580340        -0.407995         1.011805
 C         3.312080         0.462752        -0.245552
 C         3.727073         1.329506        -1.419552
 O         2.515056         2.098617        -1.231092
 C         2.122436         1.433723         0.003359
 O         2.236200        -0.470856        -0.911855
 H        -0.116914        -1.432795        -0.004529
 H        -0.885862         0.240366         0.229774
 H        -0.240471        -0.177089        -1.234318
 H         1.803146        -0.123409         2.430336
 H         1.771146        -1.643968         1.418851
 H         4.160314         0.283121         1.699834
 H         3.951673        -1.418933         0.883223
 H         4.560289         1.961023        -1.443954
 H         3.689662         0.830176        -2.381936
 H         2.159884         2.226969         0.772246
