19
Iteration:  4106charge 0 multiplicity 1
 C        -0.109998        -0.110392        -0.071762
 C         1.341359         0.232528         0.130553
 C         1.846939         0.079214         1.625624
 C         3.480237         0.308514         1.392464
 C         3.263622         0.492651        -0.068399
 C         3.855843         0.838913        -1.461268
 O         2.615728         1.321429        -1.945020
 C         2.116540         1.409662        -0.528450
 O         2.365678        -0.727258        -0.538987
 H        -0.387169        -0.771588         0.773070
 H        -0.760885         0.717620        -0.116632
 H        -0.191703        -0.773054        -0.933466
 H         1.298032         0.627042         2.416621
 H         1.567921        -0.910171         1.706855
 H         3.818341         1.161338         1.871873
 H         3.988761        -0.576905         1.766206
 H         4.697744         1.542615        -1.289216
 H         4.233945         0.045302        -2.054828
 H         2.052001         2.499453        -0.138864
