19
Iteration:  3052charge 0 multiplicity 1
 C        -0.053348        -0.209847        -0.198710
 C         1.378839         0.053783         0.098722
 C         1.984962        -0.225938         1.540822
 C         3.546792        -0.143937         1.105729
 C         3.264661         0.290225        -0.241311
 C         3.778825         1.213691        -1.421531
 O         2.488692         1.911998        -1.427451
 C         2.105437         1.426534        -0.185555
 O         2.305878        -0.633134        -0.779259
 H        -0.405988         0.032905         0.810091
 H        -0.480125         0.416672        -1.041568
 H        -0.194950        -1.293094        -0.237190
 H         1.613113         0.610202         2.010536
 H         1.507342        -1.113109         1.982607
 H         4.196830         0.492062         1.679260
 H         3.927126        -1.123391         1.082903
 H         4.547954         1.915186        -1.168282
 H         4.041159         0.609873        -2.298900
 H         2.008484         2.233856         0.600791
