19
Iteration:  2826
 C        -0.039615        -0.131077        -0.239311
 C         1.365507         0.047533         0.092995
 C         2.050764        -0.424747         1.467228
 C         3.588887        -0.281378         1.081140
 C         3.250520         0.399431        -0.195164
 C         3.712256         1.290233        -1.405022
 O         2.398578         1.970925        -1.355044
 C         2.155295         1.400660        -0.019652
 O         2.294126        -0.556460        -0.871181
 H        -0.512905        -0.561078         0.625396
 H        -0.516539         0.746555        -0.668385
 H        -0.133495        -0.987911        -0.966860
 H         1.604194         0.285873         2.185724
 H         1.818857        -1.526493         1.689115
 H         4.366871         0.413543         1.605575
 H         4.123334        -1.225769         0.908683
 H         4.565474         2.013175        -1.209626
 H         3.974772         0.681114        -2.306978
 H         2.164471         2.027271         0.865854
