19
Iteration:  3656charge 0 multiplicity 1
 C        -0.077770        -0.215878        -0.138983
 C         1.296775         0.204232         0.121553
 C         1.897056         0.062514         1.617703
 C         3.456176         0.115532         1.330557
 C         3.254843         0.425970        -0.181385
 C         3.838199         0.883359        -1.454535
 O         2.602053         1.563225        -1.821205
 C         2.122474         1.427242        -0.388097
 O         2.367756        -0.644925        -0.545843
 H        -0.133217        -1.365934         0.016453
 H        -0.857220         0.227793         0.566222
 H        -0.254932         0.030236        -1.170593
 H         1.671707         0.783876         2.305444
 H         1.461259        -0.903090         2.007472
 H         4.044966         0.764125         1.921367
 H         3.970986        -0.794010         1.417357
 H         4.823046         1.486717        -1.535404
 H         3.876949        -0.074011        -2.118044
 H         1.978432         2.409159         0.068819
