19
Iteration:  1664
 C        -0.143806        -0.237526        -0.209531
 C         1.388999        -0.045639         0.052926
 C         2.113672        -0.434761         1.417736
 C         3.599975        -0.268007         1.023672
 C         3.232227         0.312146        -0.378807
 C         3.717098         1.396528        -1.389827
 O         2.424424         2.191804        -1.161210
 C         2.217048         1.313534         0.040227
 O         2.240029        -0.584809        -0.919888
 H        -0.310635        -1.289621        -0.544077
 H        -0.750549         0.068693         0.721495
 H        -0.552593         0.364510        -1.067774
 H         2.036210         0.081051         2.316842
 H         1.924693        -1.513568         1.497335
 H         4.182311         0.504538         1.569012
 H         3.991449        -1.330168         1.138547
 H         4.552549         1.936485        -1.000865
 H         3.985421         1.173960        -2.455495
 H         2.348936         1.964673         0.940689
