19
Iteration:  1620
 C        -0.136586        -0.211833        -0.020940
 C         1.361523         0.063024         0.079586
 C         2.110106        -0.622498         1.270456
 C         3.588068        -0.397809         1.044183
 C         3.316454         0.447318        -0.242437
 C         3.795921         1.382786        -1.296403
 O         2.341109         2.027096        -1.351040
 C         2.109842         1.466948        -0.031161
 O         2.336151        -0.466132        -0.922438
 H        -0.479210        -1.269397         0.231889
 H        -0.441319         0.761029         0.555256
 H        -0.538246        -0.012787        -1.059212
 H         1.555146        -0.240350         2.150424
 H         1.918173        -1.716714         1.129312
 H         4.043154         0.089227         1.946204
 H         4.185306        -1.369590         0.751076
 H         4.503368         2.131474        -1.046750
 H         4.209562         1.078606        -2.302784
 H         2.008890         2.147483         0.872082
