19
Iteration:   523
 C        -0.070998        -0.249374        -0.074179
 C         1.365069         0.035002         0.156614
 C         2.037612        -0.686276         1.303128
 C         3.592191        -0.339141         0.940224
 C         3.244752         0.408403        -0.283851
 C         3.803922         1.410408        -1.332293
 O         2.456387         2.037752        -1.288192
 C         2.093813         1.472423         0.052975
 O         2.278852        -0.390191        -0.951538
 H        -0.418620        -1.251695         0.265358
 H        -0.615006         0.523882         0.523686
 H        -0.303049        -0.168350        -1.164572
 H         1.555187        -0.501868         2.287329
 H         1.816319        -1.771246         1.200416
 H         4.082722         0.259866         1.779929
 H         4.247142        -1.149677         0.778656
 H         4.664319         2.078783        -1.007510
 H         3.958036         0.871501        -2.324335
 H         1.998428         2.244686         0.837418
