19
Iteration:  1604
 C        -0.093063        -0.146331        -0.072275
 C         1.361566         0.124027         0.163396
 C         2.029587        -0.731051         1.329569
 C         3.588303        -0.393477         0.983819
 C         3.306967         0.478944        -0.246694
 C         3.722761         1.502700        -1.345920
 O         2.423545         1.929775        -1.379631
 C         2.157838         1.398384        -0.008005
 O         2.314021        -0.423050        -0.913192
 H        -0.254923        -1.105974         0.421346
 H        -0.895493         0.329552         0.423976
 H        -0.318372        -0.179671        -1.132341
 H         1.704485        -0.545163         2.419912
 H         1.679384        -1.735285         1.168914
 H         4.122870         0.265342         1.764696
 H         4.258388        -1.258386         0.829092
 H         4.452699         2.226921        -0.791443
 H         4.033679         0.965125        -2.219905
 H         2.075283         2.243203         0.643079
