19
Iteration:  2027
 C        -0.097285        -0.178935        -0.061540
 C         1.351514         0.119158         0.081830
 C         2.007650        -0.652002         1.334063
 C         3.584023        -0.288791         1.039900
 C         3.293586         0.397059        -0.289514
 C         3.732135         1.412386        -1.398148
 O         2.440051         1.966095        -1.339356
 C         2.154527         1.434845        -0.033609
 O         2.332909        -0.453531        -0.875649
 H        -0.326274        -1.227949         0.006069
 H        -0.653759         0.132919         0.798636
 H        -0.461908         0.274430        -0.962460
 H         1.748365        -0.662605         2.424897
 H         1.859944        -1.665212         0.924150
 H         3.960927         0.407405         1.909824
 H         4.160244        -1.291058         1.105027
 H         4.508568         2.054544        -0.857560
 H         4.100666         0.833664        -2.245611
 H         1.969116         2.131423         0.749067
