19
Iteration:  3060charge 0 multiplicity 1
 C        -0.069019        -0.205568        -0.204589
 C         1.361573         0.032545         0.109773
 C         1.975027        -0.175276         1.530687
 C         3.522722        -0.139416         1.119816
 C         3.251477         0.379342        -0.298840
 C         3.733892         1.192018        -1.460557
 O         2.504278         1.914847        -1.403323
 C         2.132880         1.376159        -0.132986
 O         2.373033        -0.683755        -0.773979
 H        -0.659106        -0.117816         0.706717
 H        -0.424125         0.500235        -0.917263
 H        -0.299374        -1.180182        -0.550328
 H         1.688400         0.671703         2.245095
 H         1.636298        -1.005699         2.058958
 H         4.195989         0.429516         1.705593
 H         3.812998        -1.197995         1.079526
 H         4.725642         1.771557        -1.080745
 H         3.872537         0.773994        -2.459192
 H         2.061521         2.235279         0.580505
