19
Iteration:  1182charge 0 multiplicity 1
 C        -0.099876        -0.189869        -0.050229
 C         1.411783         0.075947         0.009858
 C         2.033865        -0.681490         1.280294
 C         3.576608        -0.396417         1.017979
 C         3.310521         0.463761        -0.272857
 C         3.723078         1.461783        -1.291903
 O         2.420138         2.071936        -1.341003
 C         2.132993         1.413622        -0.028114
 O         2.315264        -0.492426        -0.879483
 H        -0.354377        -1.219568         0.172260
 H        -0.499470         0.387798         0.762464
 H        -0.610502         0.064735        -0.965863
 H         1.738783        -0.417356         2.366429
 H         1.879331        -1.710088         1.136932
 H         4.067994         0.051958         1.887752
 H         3.968305        -1.411149         0.898911
 H         4.526252         1.978073        -0.737067
 H         4.004816         1.172233        -2.305173
 H         1.992323         2.176764         0.817147
