19
Iteration:  2006
 C        -0.074839        -0.107436        -0.101267
 C         1.362789        -0.076288         0.045363
 C         2.073016        -0.599240         1.358792
 C         3.614312        -0.290625         1.073615
 C         3.220403         0.417805        -0.230303
 C         3.764362         1.404497        -1.371205
 O         2.409688         2.089140        -1.283133
 C         2.153162         1.366351        -0.031014
 O         2.307524        -0.570653        -0.948767
 H        -0.495702        -1.072053         0.264258
 H        -0.647275         0.611650         0.477607
 H        -0.358998         0.111531        -1.117241
 H         1.757579        -0.005902         2.194118
 H         1.658660        -1.581837         1.384228
 H         4.050298         0.489419         1.829942
 H         4.287329        -1.163446         0.810192
 H         4.541969         2.191222        -1.067812
 H         3.852568         0.838297        -2.317637
 H         2.067018         2.007741         0.816525
