19
Iteration:  2084charge 0 multiplicity 1
 C        -0.140852        -0.227682        -0.159716
 C         1.320473         0.023304         0.078719
 C         2.085386        -0.407946         1.399810
 C         3.602091        -0.344571         0.960640
 C         3.295320         0.367420        -0.375753
 C         3.736271         1.387299        -1.362907
 O         2.431677         2.142192        -1.208735
 C         2.143049         1.400872        -0.025456
 O         2.319636        -0.642112        -0.865642
 H        -0.019042        -1.023212        -0.935169
 H        -0.680715        -0.387541         0.782116
 H        -0.776489         0.481433        -0.679948
 H         2.016812         0.360061         2.173273
 H         1.729557        -1.343888         1.894896
 H         4.135211         0.163290         1.885139
 H         3.847154        -1.419042         0.883574
 H         4.700084         1.958678        -1.000689
 H         4.009259         0.916037        -2.362285
 H         2.061893         2.016394         0.857378
