19
Iteration:  1995charge 0 multiplicity 1
 C        -0.117282        -0.134767        -0.162183
 C         1.398178        -0.040265         0.048580
 C         2.008180        -0.513742         1.454353
 C         3.655741        -0.287134         0.989652
 C         3.275685         0.379833        -0.338099
 C         3.707475         1.408628        -1.378559
 O         2.436616         2.059229        -1.179559
 C         2.060596         1.298753        -0.023942
 O         2.328793        -0.532662        -0.962362
 H        -0.702969        -1.012122         0.171707
 H        -0.328454         0.791762         0.386376
 H        -0.277308        -0.062617        -1.226082
 H         1.774082         0.087921         2.309089
 H         1.843734        -1.507285         1.812641
 H         4.191678         0.379955         1.797124
 H         4.294776        -1.229956         1.032256
 H         4.637115         2.033359        -1.101187
 H         4.002640         0.976837        -2.363410
 H         1.998204         1.885301         0.864603
