19
Iteration:  3712charge 0 multiplicity 1
 C        -0.137575        -0.070290        -0.127905
 C         1.332385         0.092791         0.132985
 C         1.855495         0.074425         1.598168
 C         3.411902         0.245085         1.291092
 C         3.319588         0.317185        -0.237630
 C         3.979361         0.938002        -1.454754
 O         2.496326         1.543284        -1.805259
 C         2.172467         1.355205        -0.456378
 O         2.357126        -0.813000        -0.468507
 H        -0.343163        -0.356989        -1.187713
 H        -0.484580        -0.824281         0.570927
 H        -0.403036         0.934216         0.171705
 H         1.534881         0.861428         2.228708
 H         1.594208        -0.847475         2.050370
 H         3.795672         1.166168         1.705547
 H         3.978828        -0.605238         1.571593
 H         4.585062         1.820115        -0.957345
 H         4.576858         0.542798        -2.282102
 H         1.856022         2.269499         0.047982
