19
Iteration:  4955
 C        -0.155464        -0.145511        -0.044809
 C         1.325824         0.178054         0.164537
 C         1.893025         0.047646         1.586272
 C         3.394993         0.330188         1.355694
 C         3.291786         0.401173        -0.185256
 C         3.922956         0.852193        -1.487859
 O         2.634563         1.467152        -1.957430
 C         2.133986         1.366665        -0.460802
 O         2.340341        -0.722809        -0.454503
 H        -0.473525        -0.534518         0.855872
 H        -0.726836         0.789295        -0.178521
 H        -0.324977        -0.845922        -0.851939
 H         1.357960         0.610154         2.403179
 H         1.709389        -0.971120         1.914186
 H         3.882066         1.068209         1.927565
 H         3.949509        -0.633774         1.429000
 H         4.429985         1.806089        -1.228458
 H         4.366181         0.193007        -2.248270
 H         2.100732         2.326138        -0.080843
