19
Iteration:  1383
 C        -0.036193        -0.283163        -0.217516
 C         1.374083         0.080202         0.130752
 C         2.047597        -0.638530         1.406882
 C         3.577567        -0.406053         1.016259
 C         3.284756         0.431078        -0.258285
 C         3.741167         1.319746        -1.467492
 O         2.403704         2.125483        -1.189085
 C         2.150347         1.475045         0.041834
 O         2.271015        -0.367353        -0.912975
 H        -0.311093        -1.333900        -0.170145
 H        -0.808014         0.234250         0.348107
 H        -0.297166        -0.009032        -1.253806
 H         1.923063        -0.414840         2.424199
 H         1.929829        -1.740477         1.259644
 H         4.351308        -0.099529         1.787596
 H         3.762929        -1.468297         0.759976
 H         4.501244         2.077456        -1.270765
 H         3.931438         0.747532        -2.392404
 H         2.093164         2.258906         0.811659
