19
Iteration:  3094
 C        -0.048007        -0.164156        -0.288257
 C         1.371411         0.119003         0.099430
 C         1.950801        -0.306564         1.571663
 C         3.606257        -0.124233         1.234566
 C         3.273960         0.394483        -0.278530
 C         3.675150         1.141802        -1.519604
 O         2.482824         1.862185        -1.461309
 C         2.170084         1.425181        -0.129280
 O         2.298808        -0.643843        -0.711579
 H        -0.515053        -0.688435         0.507057
 H        -0.656883         0.742931        -0.442173
 H        -0.054514        -0.720384        -1.189047
 H         1.770542         0.424624         2.364544
 H         1.828435        -1.332961         1.819885
 H         4.109296         0.604039         1.832993
 H         4.144858        -1.039860         1.260345
 H         4.667898         1.795974        -1.270070
 H         3.707889         0.741731        -2.553615
 H         2.041456         2.248926         0.650922
