19
Iteration:  1045charge 0 multiplicity 1
 C        -0.143321        -0.205297        -0.058017
 C         1.364064         0.093216         0.140007
 C         2.047777        -0.703846         1.298795
 C         3.597916        -0.384513         1.025311
 C         3.281246         0.404275        -0.281448
 C         3.765064         1.500454        -1.335141
 O         2.466985         2.126337        -1.391681
 C         2.178288         1.416279         0.031436
 O         2.258219        -0.476248        -0.906986
 H        -0.309286        -1.221179         0.312868
 H        -1.004287         0.328315         0.410954
 H        -0.299040        -0.327820        -1.127780
 H         1.769746        -0.742468         2.360728
 H         1.852304        -1.811903         0.895729
 H         3.971994         0.251129         1.816858
 H         4.103520        -1.390469         0.929225
 H         4.552596         2.142592        -0.829112
 H         4.233249         0.963990        -2.208930
 H         1.979959         2.079872         0.856365
