19
Iteration:  3850
 C        -0.172014        -0.085546        -0.056212
 C         1.357035         0.151764         0.095879
 C         1.869791         0.101409         1.578627
 C         3.388803         0.348360         1.350804
 C         3.306109         0.313529        -0.129781
 C         3.895287         0.952195        -1.470115
 O         2.622144         1.407326        -1.866620
 C         2.225076         1.422981        -0.525571
 O         2.305300        -0.837104        -0.461491
 H        -0.900281        -0.072080         0.682317
 H        -0.626933         0.577859        -0.825315
 H        -0.343428        -1.091453        -0.439495
 H         1.437626         0.833055         2.224809
 H         1.725522        -0.973285         2.026692
 H         3.869613         1.297198         1.673226
 H         3.972076        -0.520022         1.746666
 H         4.600187         1.715387        -1.235603
 H         4.425522         0.219762        -2.173189
 H         2.113471         2.508236        -0.066199
