19
Iteration:  2694
 C        -0.095452        -0.231832        -0.179757
 C         1.371461         0.055613         0.106326
 C         2.100203        -0.541707         1.406836
 C         3.605823        -0.371169         1.032041
 C         3.276415         0.453941        -0.206431
 C         3.780680         1.365211        -1.358873
 O         2.420244         1.988949        -1.386291
 C         2.122799         1.466537        -0.003249
 O         2.258232        -0.438959        -0.911478
 H        -0.553226         0.515761        -0.793439
 H        -0.329500        -1.283005        -0.419647
 H        -0.704447        -0.263553         0.742846
 H         1.671135         0.026293         2.282925
 H         1.945479        -1.650853         1.710050
 H         4.148920         0.147762         1.910554
 H         3.943996        -1.381274         0.924853
 H         4.630596         1.965090        -1.259032
 H         3.853633         0.650730        -2.211254
 H         2.141094         2.228099         0.801352
