19
Iteration:  4006charge 0 multiplicity 1
 C        -0.089588        -0.172818        -0.102501
 C         1.396901         0.237114         0.053151
 C         1.887026         0.198561         1.610191
 C         3.386853         0.317752         1.414607
 C         3.239952         0.441111        -0.085835
 C         3.960917         0.735504        -1.549935
 O         2.560650         1.325405        -1.858040
 C         2.107398         1.432425        -0.474704
 O         2.357493        -0.708748        -0.480912
 H        -0.135051        -1.175820        -0.583654
 H        -0.707449        -0.087892         0.742810
 H        -0.494386         0.511463        -0.835373
 H         1.389249         0.936051         2.235601
 H         1.620740        -0.839907         1.966308
 H         3.692699         1.220115         1.920505
 H         3.980382        -0.471563         1.765147
 H         4.740364         1.487907        -1.401765
 H         4.256056        -0.158006        -2.127675
 H         1.847530         2.514502        -0.150231
