19
Iteration:  3749
 C        -0.133436        -0.205077        -0.180175
 C         1.375887         0.183304         0.119432
 C         1.889969         0.141151         1.639560
 C         3.454366         0.232954         1.366887
 C         3.308935         0.359693        -0.171008
 C         3.913513         0.756441        -1.539041
 O         2.545901         1.556349        -1.755501
 C         2.126033         1.402415        -0.421749
 O         2.352072        -0.681817        -0.549242
 H        -0.609147         0.355424        -0.989994
 H        -0.279610        -1.251460        -0.494633
 H        -0.978398        -0.092307         0.560151
 H         1.526906         1.072073         2.191239
 H         1.629247        -0.752226         2.229034
 H         3.928235         1.111558         1.911457
 H         4.040567        -0.682041         1.796337
 H         4.755987         1.492014        -1.456832
 H         4.030963        -0.099289        -2.216904
 H         1.919717         2.488234         0.067336
