19
Iteration:  1398charge 0 multiplicity 1
 C        -0.059105        -0.227943        -0.286898
 C         1.342516         0.095538         0.156339
 C         2.078964        -0.664652         1.353845
 C         3.605156        -0.395025         0.901715
 C         3.254049         0.460174        -0.267348
 C         3.681877         1.358638        -1.423210
 O         2.474618         2.119147        -1.192786
 C         2.146644         1.463753         0.099893
 O         2.275833        -0.504321        -0.806572
 H        -0.194799        -1.283662         0.117855
 H        -0.819546         0.402294         0.229812
 H        -0.078697        -0.164478        -1.398781
 H         1.765145        -0.128187         2.251963
 H         1.730324        -1.665025         1.285329
 H         4.066660         0.256944         1.704536
 H         4.270386        -1.184504         0.577380
 H         4.604004         1.919843        -1.279786
 H         3.501955         0.902827        -2.354269
 H         2.092325         2.134237         0.947039
