19
Iteration:   849charge 0 multiplicity 1
 C        -0.032939        -0.279327        -0.201413
 C         1.424574         0.085734         0.146793
 C         2.109926        -0.551392         1.368732
 C         3.634438        -0.457263         0.945101
 C         3.262093         0.429919        -0.232300
 C         3.698999         1.307537        -1.321864
 O         2.396670         2.097590        -1.251471
 C         2.137316         1.446681         0.022967
 O         2.199285        -0.380629        -0.929044
 H        -0.328950        -1.204266         0.259116
 H        -0.785666         0.492568        -0.035359
 H        -0.125803        -0.491816        -1.261753
 H         1.995810        -0.205889         2.372212
 H         1.648485        -1.582769         1.401345
 H         4.159017         0.004841         1.769360
 H         4.241790        -1.331448         0.684167
 H         4.484552         2.082679        -1.079714
 H         3.941833         0.888852        -2.348928
 H         1.962869         2.210327         0.888299
