19
Iteration:  3342
 C        -0.064493        -0.355255        -0.196423
 C         1.388154         0.206152         0.087650
 C         1.941905        -0.089082         1.669101
 C         3.467996        -0.092463         1.318892
 C         3.264952         0.434389        -0.237184
 C         3.835083         0.933500        -1.556463
 O         2.536886         1.787212        -1.668541
 C         2.141880         1.495532        -0.258371
 O         2.283992        -0.561114        -0.647053
 H        -0.387085        -1.049371         0.678490
 H        -0.860752         0.451548        -0.155480
 H        -0.033589        -0.911265        -1.125010
 H         1.800856         0.797339         2.336911
 H         1.430365        -0.922915         1.847044
 H         4.065141         0.597322         1.968824
 H         4.046821        -1.090778         1.449429
 H         4.802967         1.629500        -1.388703
 H         3.774348         0.237731        -2.365138
 H         2.070000         2.351255         0.364628
