19
Iteration:  2318
 C        -0.154529        -0.088642        -0.099870
 C         1.411997        -0.025812        -0.008698
 C         2.120374        -0.496571         1.440820
 C         3.568061        -0.263969         0.977158
 C         3.291855         0.367744        -0.365073
 C         3.734552         1.448981        -1.188177
 O         2.401840         1.973214        -1.304299
 C         2.125314         1.357511        -0.046303
 O         2.299203        -0.641555        -0.927831
 H        -0.248271        -0.561822        -1.059315
 H        -0.699706        -0.288583         0.829448
 H        -0.626287         0.955561        -0.312020
 H         1.911958        -0.096808         2.383960
 H         1.896784        -1.519147         1.522549
 H         4.003944         0.391943         1.690001
 H         4.184276        -1.177118         0.629231
 H         4.442428         2.219509        -0.697558
 H         4.232783         1.293958        -2.168647
 H         2.057846         1.980016         0.866794
