19
Iteration:  1495charge 0 multiplicity 1
 C        -0.149347        -0.289878        -0.089403
 C         1.324510         0.009885         0.178754
 C         2.063839        -0.646768         1.296135
 C         3.627793        -0.310769         1.006143
 C         3.262639         0.508680        -0.236105
 C         3.824476         1.334446        -1.326253
 O         2.451053         2.011651        -1.352170
 C         2.138912         1.447312         0.032765
 O         2.205345        -0.343510        -0.947989
 H        -0.089896        -1.299784        -0.611576
 H        -0.829320        -0.253135         0.781674
 H        -0.305884         0.452166        -0.929524
 H         1.951884        -0.243475         2.259488
 H         1.924227        -1.685644         1.311969
 H         4.329526         0.156014         1.842835
 H         4.007441        -1.291695         0.660065
 H         4.637243         2.001285        -0.999253
 H         4.085256         0.750143        -2.173919
 H         2.211156         2.205913         0.809150
