19
Iteration:  3103charge 0 multiplicity 1
 C        -0.029553        -0.165774        -0.239208
 C         1.391136         0.138352         0.119091
 C         1.997233        -0.287376         1.529808
 C         3.533861        -0.082118         1.151686
 C         3.267635         0.348050        -0.231625
 C         3.713848         1.082773        -1.509319
 O         2.451748         1.832006        -1.498928
 C         2.136198         1.448331        -0.062819
 O         2.315653        -0.587597        -0.729514
 H        -0.506744        -0.896368         0.381589
 H        -0.466543         0.792450        -0.302597
 H         0.074518        -0.550772        -1.208092
 H         1.543226         0.186369         2.496948
 H         1.777450        -1.304803         1.556032
 H         3.903101         0.628989         1.865283
 H         4.174995        -0.999674         1.144489
 H         4.536623         1.822236        -1.235234
 H         3.973829         0.523648        -2.382630
 H         2.131844         2.199797         0.741018
