19
Iteration:  3128
 C        -0.146442        -0.114199        -0.140360
 C         1.335188         0.131560         0.099117
 C         1.991186        -0.413200         1.533657
 C         3.590710        -0.077244         1.237534
 C         3.302309         0.429524        -0.162959
 C         3.829213         1.159259        -1.467624
 O         2.474736         1.743892        -1.587504
 C         2.129047         1.441412        -0.192678
 O         2.287605        -0.566367        -0.787357
 H        -0.298667        -1.147872         0.055317
 H        -0.753295         0.569681         0.477783
 H        -0.322473         0.065283        -1.202274
 H         1.643336         0.073816         2.410574
 H         1.826649        -1.511462         1.710540
 H         3.849441         0.600221         2.020386
 H         4.267722        -0.875360         1.206765
 H         4.672104         1.919250        -1.196007
 H         4.070043         0.578402        -2.421922
 H         2.019275         2.299411         0.543465
