19
Iteration:  1803
 C        -0.039844        -0.265039        -0.162769
 C         1.368423         0.070922         0.084047
 C         1.987111        -0.574169         1.420506
 C         3.604239        -0.371338         0.986633
 C         3.275680         0.458353        -0.272327
 C         3.686981         1.366561        -1.420114
 O         2.400683         2.139286        -1.230635
 C         2.217086         1.435170         0.069171
 O         2.332049        -0.522644        -0.927683
 H        -0.142595        -1.310994         0.100652
 H        -0.791876         0.431517         0.270066
 H        -0.333284        -0.404670        -1.180211
 H         1.670523        -0.061393         2.426576
 H         1.526372        -1.627898         1.293618
 H         4.185256         0.236018         1.716270
 H         4.094571        -1.333598         0.680130
 H         4.622049         1.979433        -1.312343
 H         3.725363         0.792862        -2.384267
 H         2.071902         2.102987         0.958438
