19
Iteration:  4608charge 0 multiplicity 1
 C        -0.060972        -0.234132        -0.114249
 C         1.405072         0.168146         0.053219
 C         1.863211         0.345166         1.591460
 C         3.379042         0.320467         1.339176
 C         3.298707         0.267211        -0.192884
 C         3.862149         0.779717        -1.576902
 O         2.618725         1.614548        -1.785052
 C         2.190447         1.290413        -0.452110
 O         2.257018        -0.801264        -0.391448
 H         0.032994        -1.198420        -0.499055
 H        -0.604613        -0.283318         0.838423
 H        -0.603777         0.333632        -0.822427
 H         1.557520         1.251704         2.217659
 H         1.457681        -0.461176         2.148407
 H         3.926515         1.126966         1.710713
 H         3.832762        -0.519626         1.854297
 H         4.853334         1.351864        -1.598656
 H         3.825538        -0.004843        -2.342256
 H         2.010938         2.229681         0.034839
