19
Iteration:  4177
 C        -0.019132        -0.232899        -0.197530
 C         1.281080         0.177733         0.166725
 C         1.784472         0.338386         1.572102
 C         3.498271         0.230909         1.303266
 C         3.307170         0.359028        -0.173692
 C         3.824086         0.833189        -1.569099
 O         2.602584         1.477306        -1.784994
 C         2.148224         1.351139        -0.406862
 O         2.355858        -0.748656        -0.394894
 H        -0.480332        -1.097900         0.340779
 H        -0.725500         0.699074        -0.011622
 H        -0.114634        -0.438468        -1.285671
 H         1.327161         1.287839         2.061071
 H         1.443882        -0.604838         2.208578
 H         4.193553         0.965973         1.881578
 H         3.907738        -0.803862         1.450950
 H         4.628154         1.510042        -1.560572
 H         4.098911        -0.041960        -2.207859
 H         2.049523         2.258130         0.156071
