19
Iteration:  2485charge 0 multiplicity 1
 C        -0.068206        -0.179494        -0.169535
 C         1.385330         0.114243         0.125833
 C         2.053054        -0.511275         1.400178
 C         3.614738        -0.311809         1.067363
 C         3.274763         0.391260        -0.193405
 C         3.739638         1.247796        -1.399540
 O         2.374550         1.997890        -1.355111
 C         2.120116         1.449599        -0.028092
 O         2.290420        -0.463487        -0.925130
 H        -0.628082         0.711562        -0.582129
 H        -0.028648        -1.037279        -0.914006
 H        -0.526038        -0.570469         0.711807
 H         1.856428        -0.308648         2.421114
 H         1.896563        -1.585109         1.389423
 H         3.989315         0.316496         1.886192
 H         4.266325        -1.196271         1.021118
 H         4.475157         2.048231        -1.065213
 H         3.898907         0.565894        -2.286733
 H         2.268527         2.213644         0.759000
