19
Iteration:  1290charge 0 multiplicity 1
 C        -0.107038        -0.219768        -0.153230
 C         1.356085         0.138307         0.145755
 C         2.085848        -0.626268         1.299822
 C         3.603402        -0.333108         1.028145
 C         3.282073         0.415311        -0.246118
 C         3.647152         1.361391        -1.297318
 O         2.443086         2.029488        -1.262825
 C         2.172114         1.347676         0.060085
 O         2.313210        -0.407733        -1.024036
 H        -0.109422        -1.234603        -0.578546
 H        -0.651325        -0.196455         0.769141
 H        -0.646241         0.466853        -0.795404
 H         1.499172        -0.231183         2.233136
 H         1.888918        -1.671271         1.239923
 H         4.245556         0.247982         1.640564
 H         4.075117        -1.263102         0.943224
 H         4.519044         2.126510        -1.099547
 H         3.978141         0.843980        -2.213051
 H         2.170710         2.074320         0.897037
