19
Iteration:  1599
 C        -0.064377        -0.157403        -0.120862
 C         1.350423         0.125781         0.186623
 C         2.070896        -0.715497         1.410130
 C         3.544365        -0.387332         0.960035
 C         3.308711         0.497301        -0.281314
 C         3.710637         1.511851        -1.332700
 O         2.434342         1.910619        -1.374368
 C         2.173548         1.357680         0.016585
 O         2.278889        -0.406666        -0.910476
 H        -0.188482        -1.167039         0.318994
 H        -0.795647         0.540961         0.421021
 H        -0.385142        -0.216319        -1.175002
 H         1.502948        -0.545822         2.368416
 H         1.796019        -1.766020         1.082612
 H         4.070822         0.280989         1.589866
 H         4.291853        -1.172787         0.751901
 H         4.481809         2.138888        -0.922253
 H         4.162057         0.984755        -2.225085
 H         2.066809         2.181755         0.777835
