19
Iteration:  1614charge 0 multiplicity 1
 C        -0.143842        -0.182322        -0.006944
 C         1.375558         0.095837         0.117480
 C         2.027162        -0.696156         1.242465
 C         3.635752        -0.392382         1.041909
 C         3.314410         0.426653        -0.218774
 C         3.791621         1.417503        -1.310424
 O         2.354845         1.994171        -1.377228
 C         2.116516         1.478071        -0.031251
 O         2.338750        -0.453563        -0.918355
 H        -0.357076        -1.197775         0.235187
 H        -0.720238         0.574875         0.466681
 H        -0.337757        -0.145123        -1.076699
 H         1.925608        -0.307919         2.309542
 H         1.766822        -1.740971         1.131521
 H         4.006479         0.083162         1.943696
 H         4.112490        -1.298495         0.821792
 H         4.459520         2.301123        -1.018847
 H         4.102251         1.149091        -2.314998
 H         2.082889         2.274526         0.708968
