19
Iteration:    57
 C        -0.147487        -0.253742        -0.219389
 C         1.432622         0.013933         0.096216
 C         2.105761        -0.798854         1.250060
 C         3.637999        -0.448302         0.840011
 C         3.228440         0.465091        -0.305344
 C         3.736983         1.487421        -1.355293
 O         2.450579         2.311343        -0.976510
 C         2.173699         1.428395         0.112555
 O         2.172358        -0.533686        -0.959769
 H        -0.343152        -1.022365         0.432562
 H        -0.842583         0.589762        -0.108289
 H        -0.105156        -0.664423        -1.253704
 H         1.939005        -0.346044         2.274809
 H         1.858055        -1.769466         1.137416
 H         4.082574         0.224456         1.666683
 H         4.283650        -1.238820         0.668417
 H         4.656917         2.083324        -1.119758
 H         3.757168         1.126431        -2.333739
 H         2.270272         1.964768         1.091941
