19
Iteration:  4299
 C        -0.201771        -0.245044        -0.145191
 C         1.295142         0.208078         0.121596
 C         1.867998         0.282935         1.598538
 C         3.526896         0.239672         1.374725
 C         3.331370         0.348507        -0.155147
 C         3.921256         0.811666        -1.449997
 O         2.600576         1.344810        -1.869373
 C         2.188348         1.458755        -0.406373
 O         2.306010        -0.668365        -0.518973
 H        -0.347115        -1.333081        -0.498556
 H        -0.847879        -0.237570         0.691007
 H        -0.686818         0.334488        -0.969557
 H         1.558930         1.209930         2.142750
 H         1.552315        -0.665298         2.263762
 H         4.037104         1.150060         1.745372
 H         3.838584        -0.700050         1.756816
 H         4.477360         1.643911        -1.357492
 H         4.381864         0.162162        -2.174097
 H         1.935218         2.437092        -0.156275
