19
Iteration:  3922
 C        -0.063284        -0.203737        -0.232161
 C         1.260411         0.204954         0.168550
 C         1.850911         0.355492         1.674644
 C         3.391361         0.223290         1.326543
 C         3.295821         0.286221        -0.175595
 C         3.828088         0.871075        -1.588511
 O         2.617122         1.481021        -1.767946
 C         2.192609         1.391520        -0.477169
 O         2.417157        -0.830655        -0.425048
 H        -0.429887        -0.987870         0.537681
 H        -0.855994         0.540491        -0.090583
 H        -0.131876        -0.738228        -1.223533
 H         1.393068         1.347482         2.070015
 H         1.488749        -0.422539         2.267045
 H         3.872409         1.107052         1.734101
 H         3.801988        -0.732841         1.757207
 H         4.733854         1.550327        -1.462751
 H         3.986367         0.138587        -2.339530
 H         2.079325         2.324223        -0.024905
