19
Iteration:  3906
 C        -0.088526        -0.267038        -0.202494
 C         1.388840         0.184171         0.103442
 C         1.820310         0.292765         1.595059
 C         3.434983         0.214971         1.383348
 C         3.317234         0.412363        -0.156158
 C         3.872570         0.747678        -1.562481
 O         2.561677         1.538230        -1.875991
 C         2.163844         1.352246        -0.378424
 O         2.329229        -0.692275        -0.380334
 H        -0.578017        -0.804985         0.578891
 H        -0.760647         0.565605        -0.501199
 H         0.003804        -0.829921        -1.110697
 H         1.695319         1.204006         2.109102
 H         1.412694        -0.601191         2.232232
 H         4.014866         0.963677         1.956347
 H         3.775774        -0.790213         1.525242
 H         4.684013         1.428816        -1.600621
 H         4.014438        -0.211885        -2.140052
 H         2.124353         2.381933         0.156112
