19
Iteration:  3629
 C        -0.082528        -0.220331        -0.188193
 C         1.305366         0.143524         0.137917
 C         1.901578         0.124850         1.553773
 C         3.419251         0.174592         1.321756
 C         3.282708         0.322114        -0.270670
 C         3.819115         0.906073        -1.566244
 O         2.611666         1.681822        -1.731246
 C         2.197142         1.395556        -0.251636
 O         2.312813        -0.773946        -0.513420
 H        -0.334354        -0.996431         0.546323
 H        -0.914564         0.493777        -0.191432
 H        -0.097066        -0.852883        -1.135349
 H         1.597702         1.120781         2.188530
 H         1.564168        -0.735690         2.176301
 H         4.000216         1.004559         1.862554
 H         3.989052        -0.750690         1.706359
 H         4.669568         1.551367        -1.404529
 H         4.031539         0.182691        -2.425251
 H         2.141318         2.387183         0.240020
