19
Iteration:  1648
 C        -0.107810        -0.191482        -0.087471
 C         1.326325         0.004312         0.126666
 C         2.052382        -0.551126         1.402896
 C         3.604932        -0.290362         0.979744
 C         3.299818         0.353818        -0.362853
 C         3.738202         1.418582        -1.343317
 O         2.473369         2.107009        -1.168346
 C         2.085878         1.346846        -0.035263
 O         2.318779        -0.581892        -1.032049
 H        -0.377549        -1.243460        -0.198112
 H        -0.652941         0.269940         0.691325
 H        -0.283282         0.315896        -1.024364
 H         1.649557         0.259429         2.127826
 H         1.747096        -1.503917         1.841186
 H         3.984563         0.459691         1.728116
 H         4.403738        -1.040816         0.933958
 H         4.640312         2.110658        -1.081793
 H         3.808443         1.090675        -2.371921
 H         1.956224         1.894934         0.885475
