19
Iteration:  1852
 C        -0.062369        -0.157113        -0.215854
 C         1.307214         0.087668         0.112300
 C         2.142149        -0.503725         1.401287
 C         3.590263        -0.328497         0.932861
 C         3.255770         0.434668        -0.289603
 C         3.736692         1.360785        -1.276864
 O         2.362046         1.993771        -1.225412
 C         2.149094         1.332125         0.005999
 O         2.306226        -0.516546        -0.922421
 H        -0.074912        -1.154983        -0.740062
 H        -0.709943        -0.098886         0.654213
 H        -0.474350         0.506844        -1.030743
 H         1.871785         0.113098         2.213960
 H         1.901360        -1.480061         1.633171
 H         4.112702         0.260231         1.719574
 H         4.098774        -1.328569         0.752148
 H         4.553242         2.069266        -1.006350
 H         3.985192         0.833375        -2.195332
 H         2.159584         2.040401         0.819208
