19
Iteration:  3495
 C        -0.133093        -0.262315        -0.190662
 C         1.403474         0.147501         0.098675
 C         1.921244         0.096579         1.555546
 C         3.510961         0.125935         1.274234
 C         3.328936         0.237161        -0.242971
 C         3.850475         0.941569        -1.479875
 O         2.541890         1.859934        -1.628585
 C         2.143020         1.392107        -0.312339
 O         2.236573        -0.845262        -0.557374
 H        -0.218404         0.250629        -1.144108
 H        -0.019889        -1.338293        -0.352994
 H        -0.866088        -0.062984         0.576426
 H         1.578888         1.068562         2.187878
 H         1.634157        -0.722540         2.167963
 H         3.966033         1.112641         1.603599
 H         4.087241        -0.790943         1.570781
 H         4.819948         1.513483        -1.481529
 H         3.901701         0.348864        -2.314200
 H         1.908463         2.330031         0.224108
