19
Iteration:  2289charge 0 multiplicity 1
 C        -0.168906        -0.144821        -0.051946
 C         1.394628         0.000295         0.062799
 C         2.025082        -0.554283         1.383774
 C         3.591043        -0.304242         1.037439
 C         3.322703         0.391056        -0.313729
 C         3.786079         1.434876        -1.328102
 O         2.438960         2.047872        -1.303354
 C         2.119531         1.329462        -0.051453
 O         2.299874        -0.534767        -0.945563
 H        -0.140323        -1.050737        -0.733981
 H        -0.688858        -0.312778         0.935793
 H        -0.488935         0.740435        -0.664626
 H         1.733560        -0.034786         2.375683
 H         1.764732        -1.645728         1.419296
 H         3.999943         0.353993         1.836663
 H         4.149132        -1.208060         0.793715
 H         4.518329         2.110460        -0.868830
 H         4.128786         1.092228        -2.320812
 H         1.906778         2.022800         0.833338
