19
Iteration:  3208charge 0 multiplicity 1
 C        -0.047098        -0.244049        -0.190269
 C         1.325214         0.105006         0.180287
 C         1.943592        -0.129675         1.548342
 C         3.538753        -0.119071         1.156431
 C         3.223034         0.435439        -0.206866
 C         3.768110         1.100548        -1.504243
 O         2.579138         1.850712        -1.622652
 C         2.146657         1.452651        -0.123095
 O         2.284127        -0.669423        -0.702117
 H        -0.262698        -0.140582        -1.303263
 H        -0.110125        -1.346271        -0.040429
 H        -0.996251         0.122918         0.316658
 H         1.739337         0.571017         2.331172
 H         1.676827        -1.113054         2.042408
 H         4.100925         0.665500         1.708178
 H         4.020596        -1.108026         1.235507
 H         4.695053         1.749355        -1.265441
 H         4.070706         0.338629        -2.306854
 H         2.021977         2.250937         0.640869
