19
Iteration:  4923charge 0 multiplicity 1
 C        -0.181658        -0.186475        -0.136553
 C         1.363040         0.094426         0.094972
 C         1.933491         0.271620         1.567125
 C         3.508244         0.330562         1.333989
 C         3.253596         0.310174        -0.209005
 C         3.826497         0.845856        -1.391219
 O         2.614882         1.513044        -1.778745
 C         2.136599         1.322193        -0.428671
 O         2.285350        -0.810864        -0.543370
 H        -0.528171        -0.907742         0.544895
 H        -0.758383         0.748509         0.109585
 H        -0.293880        -0.535166        -1.167556
 H         1.785897         1.276900         1.941213
 H         1.761439        -0.427558         2.328101
 H         4.005527         1.227200         1.630867
 H         4.062752        -0.627098         1.551165
 H         4.595145         1.736106        -1.092318
 H         4.314745         0.244559        -2.202917
 H         2.121010         2.242228         0.030534
