19
Iteration:  1407charge 0 multiplicity 1
 C        -0.054279        -0.229467        -0.238229
 C         1.372175         0.087196         0.118723
 C         2.092273        -0.595235         1.355757
 C         3.657551        -0.366134         0.949550
 C         3.261661         0.460704        -0.251344
 C         3.625505         1.372375        -1.379116
 O         2.456578         2.175605        -1.209223
 C         2.166648         1.352541         0.112652
 O         2.236035        -0.547669        -0.906144
 H        -0.561933        -1.208164        -0.098969
 H        -0.822977         0.519770         0.030985
 H        -0.123941        -0.104954        -1.346273
 H         1.960206        -0.238455         2.322685
 H         1.713583        -1.576183         1.317745
 H         4.201104         0.324349         1.747022
 H         4.159365        -1.324454         0.922884
 H         4.568436         1.835398        -1.207903
 H         3.735708         0.784979        -2.239805
 H         2.175090         2.071245         0.881497
