19
Iteration:  1591charge 0 multiplicity 1
 C        -0.067289        -0.185362        -0.150598
 C         1.387936         0.072669         0.159123
 C         2.099500        -0.675026         1.413968
 C         3.556448        -0.335593         0.966565
 C         3.286852         0.424919        -0.290897
 C         3.812109         1.431838        -1.313680
 O         2.367996         1.952457        -1.358104
 C         2.142701         1.390865         0.063512
 O         2.221273        -0.407236        -0.919160
 H        -0.361044        -1.161010         0.119808
 H        -0.528423         0.621466         0.323944
 H        -0.242167        -0.114345        -1.230315
 H         1.676246        -0.387787         2.471148
 H         2.017398        -1.730629         1.127330
 H         4.046398         0.259259         1.715045
 H         4.056443        -1.208476         0.743153
 H         4.501056         2.315768        -1.029279
 H         4.120481         1.154833        -2.346133
 H         2.206109         2.143000         0.860145
