19
Iteration:  4387
 C        -0.077926        -0.058478        -0.151059
 C         1.324414         0.146182         0.191605
 C         1.917481         0.177426         1.551886
 C         3.431117         0.316044         1.292997
 C         3.224265         0.299222        -0.208346
 C         3.905811         0.923011        -1.401164
 O         2.521717         1.391945        -1.864562
 C         2.152989         1.290009        -0.439910
 O         2.358661        -0.765472        -0.452642
 H        -0.779395        -0.441628         0.663482
 H        -0.463384         0.855851        -0.476775
 H        -0.103364        -0.795534        -1.000777
 H         1.603845         1.115782         2.087400
 H         1.633547        -0.827669         2.135966
 H         3.887265         1.212801         1.530266
 H         3.873938        -0.581462         1.635724
 H         4.448097         1.858543        -1.104892
 H         4.553040         0.341900        -2.073300
 H         2.270772         2.189160         0.134529
