19
Iteration:  2500charge 0 multiplicity 1
 C        -0.029780        -0.215821        -0.210790
 C         1.397551         0.097485         0.112696
 C         2.059479        -0.502302         1.463394
 C         3.564532        -0.240244         1.090286
 C         3.299593         0.348762        -0.359115
 C         3.653864         1.325586        -1.414704
 O         2.463953         2.043071        -1.258218
 C         2.191110         1.387197        -0.005569
 O         2.246904        -0.549361        -0.852829
 H        -0.485938         0.612892        -0.742831
 H        -0.056413        -1.069629        -0.908849
 H        -0.701076        -0.483381         0.652399
 H         1.552151         0.050172         2.245604
 H         1.766102        -1.589244         1.355947
 H         4.205882         0.529694         1.570747
 H         3.966270        -1.202682         1.004182
 H         4.586866         1.889170        -1.381581
 H         3.714999         0.949599        -2.455798
 H         1.989699         2.113316         0.823699
