19
Iteration:  4831charge 0 multiplicity 1
 C        -0.116591        -0.074266        -0.110045
 C         1.302376         0.119362         0.171217
 C         1.845044         0.146780         1.666296
 C         3.439974         0.344026         1.335546
 C         3.304166         0.295091        -0.202454
 C         3.943880         0.892404        -1.505299
 O         2.561515         1.456650        -1.919722
 C         2.192358         1.326999        -0.486755
 O         2.305097        -0.779092        -0.466111
 H        -0.403227        -1.133839        -0.353030
 H        -0.666718         0.243903         0.719019
 H        -0.221966         0.573785        -0.970116
 H         1.505415         0.885154         2.500872
 H         1.641603        -0.962451         2.064966
 H         3.752937         1.366231         1.649820
 H         3.828944        -0.459745         1.891582
 H         4.672805         1.699361        -1.176729
 H         4.412230         0.105963        -2.157517
 H         2.226962         2.311149         0.064894
