19
Iteration:  1010
 C        -0.139301        -0.163656        -0.107190
 C         1.292362        -0.040761         0.062979
 C         2.080448        -0.549028         1.343554
 C         3.639126        -0.286661         0.922250
 C         3.281492         0.412977        -0.345964
 C         3.711022         1.392087        -1.234545
 O         2.436931         2.099272        -1.230190
 C         2.137608         1.296005         0.116113
 O         2.350247        -0.498298        -1.062195
 H        -0.412184        -1.188943         0.264629
 H        -0.620020         0.684705         0.478606
 H        -0.491829        -0.016917        -1.165453
 H         1.692578         0.151383         2.138676
 H         1.929984        -1.620115         1.629960
 H         4.227561         0.327361         1.655378
 H         4.039922        -1.319522         1.154772
 H         4.678722         1.908196        -0.794124
 H         3.923694         0.943845        -2.260965
 H         1.950518         1.891949         0.975310
