19
Iteration:  3469
 C        -0.125708        -0.320316        -0.135864
 C         1.365849         0.175952         0.125904
 C         1.880363         0.021734         1.613582
 C         3.413423         0.077784         1.239100
 C         3.297847         0.379332        -0.208264
 C         3.800540         0.977848        -1.508586
 O         2.594208         1.667266        -1.649825
 C         2.206241         1.428886        -0.295423
 O         2.331639        -0.660630        -0.654002
 H        -0.118322        -0.357551        -1.239397
 H        -0.366937        -1.228958         0.423024
 H        -0.678173         0.541588         0.195973
 H         1.690566         0.783846         2.343970
 H         1.603345        -0.981142         2.213100
 H         3.855347         0.866515         1.805876
 H         4.042999        -0.786205         1.325255
 H         4.668142         1.581235        -1.518822
 H         3.874537         0.208985        -2.350468
 H         2.102936         2.461763         0.187026
