19
Iteration:  3313
 C        -0.152123        -0.252204        -0.078632
 C         1.363175         0.116903         0.098935
 C         1.933332        -0.062925         1.571637
 C         3.510183        -0.018143         1.205671
 C         3.272198         0.416945        -0.276335
 C         3.947082         1.128151        -1.429845
 O         2.534981         1.655823        -1.656835
 C         2.120152         1.461555        -0.202743
 O         2.288122        -0.685443        -0.706662
 H        -0.730806        -0.254437         0.813925
 H        -0.677296         0.542010        -0.639262
 H        -0.328510        -1.212122        -0.622205
 H         1.591602         0.794736         2.193020
 H         1.538366        -1.144252         1.784983
 H         4.202756         0.669675         1.734415
 H         3.953330        -0.996424         1.280233
 H         4.676287         1.829189        -1.073098
 H         4.221994         0.482303        -2.283963
 H         2.005327         2.370277         0.450652
