19
Iteration:  4510
 O         0.337861        -0.230389         0.210575
 C        -0.669070         0.776488         0.135736
 C        -2.250540         0.603930         0.198173
 C        -2.069771         2.123329         0.342858
 C        -1.736616         2.414630        -1.186805
 C        -0.530224         1.405973        -1.165100
 O        -2.818811         2.794984         1.403042
 C        -1.803058         2.243075         2.333458
 C        -0.766449         1.997664         1.099326
 H         0.443802        -0.200287         1.173464
 H        -2.889265         0.287502        -0.631497
 H        -2.667065         0.333803         1.172144
 H        -2.686643         2.356461        -1.787313
 H        -1.505373         3.425507        -1.339194
 H        -0.650311         0.640993        -2.025174
 H         0.504028         1.692621        -1.314291
 H        -1.404346         3.067127         3.043239
 H        -2.186930         1.445512         2.921908
 H         0.068326         2.780812         1.007566
