19
Iteration:  3080charge 0 multiplicity 1
 O         0.304576        -0.262406         0.355793
 C        -0.685532         0.817942         0.226076
 C        -2.115619         0.525697         0.256959
 C        -2.088929         2.255816         0.285654
 C        -1.837260         2.483456        -1.251971
 C        -0.640143         1.355047        -1.271988
 O        -2.797299         2.693536         1.493166
 C        -1.670847         2.259647         2.292910
 C        -0.737030         2.124379         1.036216
 H        -0.241913        -0.946709         0.795158
 H        -2.358115         0.019363        -0.693040
 H        -2.772909         0.111080         1.049816
 H        -2.790831         2.361424        -1.874608
 H        -1.407496         3.450723        -1.615044
 H        -0.840560         0.579186        -1.999339
 H         0.222707         2.030177        -1.595309
 H        -1.392778         3.084631         2.989107
 H        -1.796680         1.253936         2.845538
 H        -0.008521         2.943609         0.772964
