19
Iteration:  4212charge 0 multiplicity 1
 O         0.232767        -0.270240         0.426286
 C        -0.642406         0.739103         0.115981
 C        -2.111383         0.439626         0.218735
 C        -2.092640         2.155289         0.273032
 C        -1.768750         2.635891        -1.096778
 C        -0.643214         1.544631        -1.298390
 O        -2.802506         2.668082         1.310199
 C        -1.706824         2.296918         2.305933
 C        -0.746619         1.994183         1.063790
 H        -0.205592        -0.837128         1.080507
 H        -2.846328        -0.045253        -0.390744
 H        -2.558529         0.151001         1.233437
 H        -2.512032         2.500267        -1.843203
 H        -1.463267         3.679271        -1.136016
 H        -0.724667         0.770688        -2.129544
 H         0.464657         1.931870        -1.399912
 H        -1.269285         3.150075         2.796061
 H        -1.898716         1.622173         3.214410
 H         0.092220         2.687589         0.934910
