19
Iteration:  3843charge 0 multiplicity 1
 O         0.241809        -0.485410         0.262408
 C        -0.563440         0.760343         0.190663
 C        -2.123914         0.642809         0.202452
 C        -2.103991         2.152760         0.308818
 C        -1.791160         2.555111        -1.102474
 C        -0.560276         1.455357        -1.160714
 O        -2.894427         2.670587         1.348505
 C        -1.690322         2.363342         2.309265
 C        -0.799742         2.067648         1.078442
 H         1.106792        -0.288302         0.672099
 H        -2.609167         0.168805        -0.667903
 H        -2.687947         0.199566         1.024350
 H        -2.698098         2.405758        -1.670836
 H        -1.490657         3.559862        -1.184607
 H        -0.856142         0.698257        -1.881839
 H         0.332031         1.981128        -1.532746
 H        -1.477447         3.409585         2.686182
 H        -1.943451         1.571988         3.005919
 H        -0.223150         2.994948         0.993240
