19
Iteration:  1006
 O         0.337683        -0.264323         0.393511
 C        -0.650454         0.733875         0.120126
 C        -2.119854         0.364267         0.402697
 C        -2.149585         2.092256         0.277620
 C        -1.878991         2.398089        -1.127661
 C        -0.550624         1.506937        -1.191995
 O        -2.840277         2.827512         1.291852
 C        -1.648434         2.417861         2.256560
 C        -0.789938         2.089835         0.981492
 H        -0.075004        -1.151312         0.320813
 H        -2.830793        -0.201309        -0.211602
 H        -2.140939         0.228427         1.482789
 H        -2.604803         2.019891        -1.939521
 H        -1.698648         3.409196        -1.371592
 H        -0.571260         0.885401        -2.107202
 H         0.306074         2.109906        -1.067643
 H        -1.261782         3.425112         2.718006
 H        -2.099466         1.681079         2.925030
 H        -0.104578         2.992806         0.795338
