19
Iteration:   711
 O         0.400360        -0.184518         0.305748
 C        -0.610037         0.709529         0.211051
 C        -2.152945         0.512972         0.444327
 C        -2.191764         2.050829         0.279095
 C        -1.914155         2.315144        -1.171573
 C        -0.715690         1.267727        -1.279472
 O        -2.758981         2.886218         1.319640
 C        -1.636070         2.491545         2.248937
 C        -0.753130         2.109543         1.001761
 H         0.188881        -0.744196         1.063780
 H        -2.714232        -0.051136        -0.283791
 H        -2.424308         0.175297         1.429879
 H        -2.678150         2.201822        -2.007850
 H        -1.512872         3.308246        -1.171424
 H        -0.861189         0.238953        -1.714222
 H         0.275696         1.703273        -1.528029
 H        -1.316389         3.319110         2.902403
 H        -1.957584         1.758710         2.930188
 H        -0.151086         3.028184         0.693333
