19
Iteration:  3216charge 0 multiplicity 1
 O         0.359234        -0.236990         0.489405
 C        -0.728543         0.739069         0.140376
 C        -2.258696         0.458085         0.117724
 C        -2.114051         2.072333         0.304087
 C        -1.813513         2.560840        -1.053142
 C        -0.601541         1.481342        -1.197077
 O        -2.771272         2.800345         1.331893
 C        -1.604167         2.248636         2.314477
 C        -0.764813         2.053374         0.998406
 H         0.174563        -1.115956         0.073743
 H        -2.815297        -0.033577        -0.749214
 H        -2.579176         0.057890         1.009858
 H        -2.728849         2.378918        -1.761381
 H        -1.546990         3.669197        -1.133291
 H        -0.846232         0.838844        -2.095673
 H         0.327751         1.986072        -1.318824
 H        -1.243002         3.161783         2.791933
 H        -1.940248         1.448003         2.910622
 H        -0.160005         2.879587         0.778871
