19
Iteration:  4570charge 0 multiplicity 1
 O         0.276219        -0.289121         0.344823
 C        -0.643360         0.799002         0.149130
 C        -2.137076         0.488105         0.271819
 C        -2.081022         2.087543         0.304667
 C        -1.733785         2.502922        -1.113696
 C        -0.541932         1.544842        -1.270473
 O        -2.919277         2.742530         1.399140
 C        -1.706646         2.337481         2.241617
 C        -0.757523         1.983189         1.065164
 H        -0.222970        -1.099029         0.452508
 H        -2.745592        -0.058469        -0.514220
 H        -2.588029         0.216589         1.259911
 H        -2.606516         2.410985        -1.803531
 H        -1.288792         3.569039        -1.038386
 H        -0.631891         0.986721        -2.187821
 H         0.484311         2.059660        -1.160162
 H        -1.370658         3.201256         2.794932
 H        -1.995940         1.424714         2.898146
 H        -0.108268         2.762450         0.754260
