19
Iteration:    74
 O         0.385573        -0.238334         0.313713
 C        -0.615115         0.765872         0.267953
 C        -2.074883         0.427406         0.400078
 C        -2.130278         2.073570         0.268774
 C        -1.906182         2.358115        -1.162572
 C        -0.716356         1.400231        -1.306847
 O        -2.764535         2.850579         1.361505
 C        -1.718697         2.498467         2.220315
 C        -0.785966         2.080846         1.042039
 H         0.153305        -0.868585         1.034273
 H        -2.470432        -0.245969        -0.373099
 H        -2.281665         0.103743         1.404119
 H        -2.759786         2.124428        -1.875207
 H        -1.623771         3.396672        -1.326453
 H        -0.979948         0.459964        -1.934584
 H         0.237654         1.740731        -1.604628
 H        -1.378243         3.439436         2.722587
 H        -1.932528         1.600425         2.818661
 H        -0.106502         2.853132         0.709896
