19
Iteration:   235
 O         0.424086        -0.113327         0.444211
 C        -0.696377         0.689397         0.232905
 C        -2.135834         0.409523         0.570072
 C        -2.119731         2.092101         0.259450
 C        -1.987228         2.439842        -1.257352
 C        -0.782737         1.360741        -1.341514
 O        -2.711095         2.902823         1.375872
 C        -1.627906         2.383263         2.142987
 C        -0.738482         1.942324         0.911278
 H         0.335152        -0.259856         1.419355
 H        -2.785781        -0.258033        -0.179557
 H        -2.123365         0.309705         1.638681
 H        -2.851792         2.289518        -1.994212
 H        -1.609350         3.377705        -1.525114
 H        -0.920037         0.474095        -2.021414
 H         0.177860         1.755741        -1.711000
 H        -1.136652         3.173799         2.794500
 H        -2.012695         1.492377         2.704470
 H         0.003138         2.859062         0.675572
