19
Iteration:  1573
 O         0.404529        -0.306547         0.400748
 C        -0.642794         0.680468         0.296492
 C        -2.249042         0.596950         0.294311
 C        -2.128186         2.107082         0.325576
 C        -1.828897         2.415729        -1.105629
 C        -0.600317         1.446993        -1.266246
 O        -2.879915         2.784846         1.352290
 C        -1.624131         2.494307         2.187801
 C        -0.782974         1.949673         1.040765
 H         0.661097        -0.515435        -0.498801
 H        -2.815765         0.012692        -0.474555
 H        -2.521870         0.232018         1.307329
 H        -2.663188         1.993064        -1.664384
 H        -1.704638         3.492094        -1.380491
 H        -0.727168         0.592509        -1.958642
 H         0.385134         1.891296        -1.472705
 H        -1.358147         3.537975         2.366324
 H        -1.902949         1.807490         2.966930
 H        -0.049830         2.653399         0.632970
