19
Iteration:  2158
 O         0.336615        -0.299974         0.228591
 C        -0.603186         0.699079         0.155716
 C        -2.223854         0.512347         0.406728
 C        -2.152825         2.136304         0.306193
 C        -1.855619         2.424511        -1.139432
 C        -0.636760         1.345591        -1.153860
 O        -2.844561         2.814807         1.387562
 C        -1.663467         2.500623         2.232263
 C        -0.711650         2.000355         0.955179
 H         0.618675        -0.546475         1.136804
 H        -2.731373         0.033098        -0.530348
 H        -2.565133         0.172459         1.422375
 H        -2.705296         2.151940        -1.802394
 H        -1.417707         3.449282        -1.359473
 H        -0.793404         0.605768        -1.928523
 H         0.373985         1.851270        -1.194514
 H        -1.347602         3.574402         2.546454
 H        -1.830744         1.958489         3.162306
 H         0.111110         2.729568         0.666654
