19
Iteration:  4976
 O         0.169961        -0.472387         0.330624
 C        -0.546188         0.780163         0.107346
 C        -2.089074         0.586975         0.285429
 C        -2.079330         2.060933         0.281732
 C        -1.791872         2.571184        -1.143932
 C        -0.443662         1.658713        -1.217950
 O        -2.855097         2.679712         1.292323
 C        -1.886864         2.352309         2.331913
 C        -0.791575         1.936648         1.144239
 H         1.101301        -0.239213         0.397161
 H        -2.677142         0.090771        -0.536122
 H        -2.322899         0.130193         1.344910
 H        -2.571838         2.359226        -1.916480
 H        -1.630798         3.654250        -1.305806
 H        -0.459939         1.143935        -2.208297
 H         0.370053         2.370654        -1.103661
 H        -1.590157         3.283943         2.762979
 H        -2.231069         1.475836         2.933735
 H        -0.069595         2.681545         1.333364
