19
Iteration:  2583charge 0 multiplicity 1
 O         0.334283        -0.215041         0.427606
 C        -0.709891         0.800165         0.230656
 C        -2.177369         0.491797         0.403065
 C        -2.091930         2.168679         0.337331
 C        -1.884757         2.380268        -1.228650
 C        -0.753244         1.266223        -1.248059
 O        -2.756313         2.840275         1.401822
 C        -1.559530         2.331682         2.250731
 C        -0.728169         2.155248         0.919930
 H         0.564758        -0.676777        -0.390126
 H        -2.660939         0.012821        -0.388403
 H        -2.466435        -0.020689         1.256919
 H        -2.691968         2.207902        -1.904416
 H        -1.430748         3.334855        -1.525679
 H        -1.140850         0.437080        -1.874983
 H         0.133554         1.732806        -1.739649
 H        -1.122006         2.893153         3.092103
 H        -1.874964         1.404673         2.623717
 H        -0.276166         3.196454         0.749648
