19
Iteration:  3300charge 0 multiplicity 1
 O         0.215153        -0.425891         0.295314
 C        -0.676272         0.660535         0.135223
 C        -2.128329         0.492112         0.204520
 C        -2.138826         2.101636         0.318525
 C        -1.840814         2.570758        -1.133655
 C        -0.489190         1.626410        -1.209884
 O        -2.828359         2.754147         1.370602
 C        -1.689838         2.426437         2.314663
 C        -0.800689         1.925349         1.093803
 H         0.926277        -0.188204         0.928790
 H        -2.563660         0.152106        -0.719440
 H        -2.346810        -0.095212         1.118634
 H        -2.684451         2.221509        -1.726635
 H        -1.532462         3.537915        -1.326499
 H        -0.516242         1.035050        -2.159188
 H         0.451449         2.196201        -1.213632
 H        -1.296164         3.365452         2.801430
 H        -2.046685         1.834863         3.203209
 H        -0.001747         2.684060         0.894549
