19
Iteration:  3895
 O         0.385203        -0.303111         0.442135
 C        -0.621511         0.712671         0.140810
 C        -2.216376         0.519017         0.175455
 C        -2.149379         2.143194         0.313639
 C        -1.811445         2.480366        -1.118782
 C        -0.611252         1.431266        -1.225724
 O        -2.740990         2.885710         1.423516
 C        -1.796437         2.252885         2.266301
 C        -0.829609         2.000279         0.999988
 H         0.964545        -0.300083        -0.342982
 H        -2.840573         0.183194        -0.746930
 H        -2.567229         0.035133         1.095117
 H        -2.604448         2.422075        -1.845493
 H        -1.338089         3.571571        -0.961810
 H        -0.664191         0.849765        -2.092005
 H         0.283643         2.047129        -1.147214
 H        -1.366924         2.908716         3.024655
 H        -2.190660         1.314108         2.687838
 H        -0.130914         2.815460         1.003273
