19
Iteration:   435charge 0 multiplicity 1
 O         0.387322        -0.211067         0.399581
 C        -0.615455         0.697937         0.189077
 C        -2.171440         0.570365         0.449362
 C        -2.104888         2.066328         0.343006
 C        -2.046581         2.225186        -1.183656
 C        -0.702256         1.334113        -1.297671
 O        -2.747331         2.827833         1.349269
 C        -1.621431         2.644848         2.193907
 C        -0.656367         2.046345         0.986394
 H        -0.038342        -1.103106         0.359675
 H        -2.791706         0.247990        -0.367921
 H        -2.512128         0.195877         1.422031
 H        -2.838880         1.702546        -1.609865
 H        -2.027105         3.290882        -1.564505
 H        -0.896458         0.564183        -2.069069
 H         0.265635         1.821052        -1.376309
 H        -1.282552         3.541454         2.628629
 H        -1.849279         1.779758         2.880377
 H         0.181799         2.722564         0.691462
