19
Iteration:   181charge 0 multiplicity 1
 O         0.247394        -0.386437         0.266371
 C        -0.656298         0.738119         0.215679
 C        -2.062689         0.474664         0.545049
 C        -2.159603         2.125461         0.268245
 C        -1.899710         2.330126        -1.209097
 C        -0.651778         1.389115        -1.259064
 O        -2.840601         2.728252         1.358722
 C        -1.599739         2.616539         2.219505
 C        -0.790268         2.147553         1.014277
 H         1.118671         0.088275         0.320042
 H        -2.564864        -0.337362        -0.163919
 H        -2.201441         0.371891         1.618857
 H        -2.677202         1.859161        -1.908355
 H        -1.631314         3.303027        -1.561144
 H        -0.692185         0.545426        -2.074272
 H         0.273295         2.005300        -1.314462
 H        -1.237286         3.645119         2.582310
 H        -1.841998         1.971016         3.147464
 H         0.195193         2.858143         0.951886
