19
Iteration:   458charge 0 multiplicity 1
 O         0.376515        -0.226312         0.185463
 C        -0.611771         0.749984         0.269616
 C        -2.141691         0.477985         0.650604
 C        -2.111093         2.161612         0.268349
 C        -1.929522         2.287275        -1.225433
 C        -0.737723         1.266212        -1.193905
 O        -2.777748         2.899073         1.281855
 C        -1.651120         2.486574         2.205736
 C        -0.750749         2.094148         0.980286
 H         0.115009        -0.953521         0.766688
 H        -2.482515        -0.379272         0.179637
 H        -2.315429         0.383518         1.715094
 H        -2.776562         1.997098        -1.707279
 H        -1.582296         3.320761        -1.615455
 H        -0.884893         0.401745        -1.842624
 H         0.204944         1.840063        -1.435021
 H        -1.174747         3.419512         2.485434
 H        -2.047574         1.767533         3.000982
 H        -0.008871         2.807746         0.640952
