19
Iteration:  3899charge 0 multiplicity 1
 O         0.378152        -0.289445         0.449642
 C        -0.613815         0.687459         0.121446
 C        -2.229798         0.522325         0.167827
 C        -2.159896         2.143965         0.307910
 C        -1.811900         2.481343        -1.105090
 C        -0.613201         1.434118        -1.192864
 O        -2.749211         2.880226         1.420758
 C        -1.771643         2.254008         2.243130
 C        -0.797304         2.004897         1.032537
 H         0.884826        -0.308304        -0.385183
 H        -2.649899         0.278488        -0.784732
 H        -2.710010         0.034167         1.033911
 H        -2.687003         2.433193        -1.795405
 H        -1.462053         3.441784        -1.060710
 H        -0.636162         0.855188        -2.151846
 H         0.311068         2.032579        -1.243795
 H        -1.533086         2.942269         3.166247
 H        -2.153210         1.321990         2.675294
 H        -0.035083         2.823633         0.868710
