19
Iteration:  1303
 O         0.254611        -0.361698         0.462987
 C        -0.633679         0.745316         0.138635
 C        -2.167015         0.587272         0.375803
 C        -2.189711         2.051667         0.270260
 C        -1.801748         2.419780        -1.127340
 C        -0.532989         1.531127        -1.235297
 O        -2.891221         2.707383         1.398240
 C        -1.673423         2.478617         2.157607
 C        -0.736032         1.991941         0.961682
 H         0.947130        -0.424680        -0.221969
 H        -2.647000        -0.041374        -0.398506
 H        -2.286964         0.332466         1.431454
 H        -2.447488         2.246420        -1.958649
 H        -1.586089         3.535003        -1.139300
 H        -0.766876         0.764695        -1.927431
 H         0.521172         1.977201        -1.300703
 H        -1.344115         3.397431         2.718444
 H        -1.955073         1.768879         2.941788
 H        -0.023567         2.881479         0.722730
