19
Iteration:  4331charge 0 multiplicity 1
 O         0.190441        -0.254045         0.401219
 C        -0.751451         0.826570         0.143083
 C        -2.199202         0.628986         0.181862
 C        -2.130963         2.120242         0.349055
 C        -1.669188         2.557812        -1.189892
 C        -0.521536         1.399453        -1.312301
 O        -2.841708         2.645358         1.464418
 C        -1.615760         2.219751         2.265967
 C        -0.822156         2.044464         1.024638
 H         0.809680        -0.214294         1.157521
 H        -2.752452         0.139604        -0.572188
 H        -2.522975         0.241132         1.188660
 H        -2.446878         2.333797        -1.889146
 H        -1.138782         3.625266        -1.356954
 H        -0.707548         0.526027        -2.002037
 H         0.509217         1.851351        -1.494287
 H        -1.366358         3.035473         2.853304
 H        -1.897782         1.441149         3.058666
 H        -0.132385         2.834347         0.794942
