19
Iteration:  2538
 O         0.288175        -0.276238         0.440142
 C        -0.683434         0.683691         0.143945
 C        -2.150133         0.408563         0.387078
 C        -2.085573         2.018350         0.289155
 C        -1.951217         2.385452        -1.161248
 C        -0.688823         1.521709        -1.343911
 O        -2.778708         2.817866         1.412461
 C        -1.513430         2.548573         2.251169
 C        -0.766247         2.068027         0.989328
 H         0.179287        -1.120774        -0.033673
 H        -2.692777        -0.104879        -0.382278
 H        -2.548146         0.130977         1.305222
 H        -2.774955         2.001969        -1.749770
 H        -1.791921         3.412179        -1.454266
 H        -0.616837         0.880276        -2.201890
 H         0.318250         1.980122        -1.136251
 H        -1.288618         3.566455         2.648514
 H        -1.627777         1.930332         3.108007
 H         0.178268         2.692479         0.732313
