19
Iteration:  4375charge 0 multiplicity 1
 O         0.250747        -0.358345         0.322504
 C        -0.546901         0.728006         0.179243
 C        -2.146526         0.463189         0.235860
 C        -2.140689         2.138252         0.277765
 C        -1.856193         2.544489        -1.131499
 C        -0.590135         1.518222        -1.211011
 O        -2.732643         2.895661         1.334032
 C        -1.771659         2.260869         2.315981
 C        -0.798608         1.942561         1.049221
 H         0.577567        -0.178713         1.228328
 H        -2.487676        -0.070317        -0.632245
 H        -2.572631        -0.046887         1.131331
 H        -2.627242         2.269772        -1.872238
 H        -1.550296         3.724960        -1.215129
 H        -0.707336         0.949790        -2.179298
 H         0.339459         2.126564        -1.409044
 H        -1.329352         2.892851         3.014810
 H        -2.167407         1.422277         2.967142
 H        -0.136149         2.809328         1.007420
