19
Iteration:  4435charge 0 multiplicity 1
 O         0.308762        -0.259865         0.266706
 C        -0.648535         0.742455         0.192627
 C        -2.205658         0.574579         0.238933
 C        -2.084699         2.193154         0.312381
 C        -1.698717         2.584080        -1.193969
 C        -0.581405         1.356609        -1.173571
 O        -2.897677         2.664016         1.424043
 C        -1.701580         2.378544         2.277231
 C        -0.762624         1.990713         1.116259
 H        -0.100415        -1.050697         0.683278
 H        -2.574690        -0.038691        -0.613742
 H        -2.597432         0.205401         1.209049
 H        -2.446357         2.354986        -1.997918
 H        -1.380248         3.558407        -1.465555
 H        -0.779473         0.714696        -2.075443
 H         0.290009         1.998547        -1.462336
 H        -1.458677         3.339141         2.876487
 H        -1.929269         1.498141         2.836231
 H         0.018362         2.757763         0.860538
