19
Iteration:  2935charge 0 multiplicity 1
 O         0.216189        -0.320436         0.413958
 C        -0.700513         0.704384         0.122260
 C        -2.170490         0.542501         0.240507
 C        -2.084363         2.102315         0.289202
 C        -1.866401         2.379309        -1.141359
 C        -0.579872         1.490935        -1.293589
 O        -2.775992         2.727585         1.412102
 C        -1.558113         2.431274         2.311944
 C        -0.813866         2.029188         0.998118
 H         0.913691         0.206500         0.830932
 H        -2.922475         0.242925        -0.516041
 H        -2.401197         0.012287         1.187726
 H        -2.689263         2.011866        -1.696262
 H        -1.718980         3.459625        -1.300047
 H        -0.673221         0.816213        -2.187920
 H         0.344998         2.047105        -1.291541
 H        -1.245859         3.428004         2.569179
 H        -1.794730         1.802228         3.223963
 H        -0.156045         2.934327         0.776089
