19
Iteration:  2417
 O         0.247556        -0.326352         0.297482
 C        -0.653191         0.693363         0.150504
 C        -2.199215         0.479912         0.392327
 C        -2.096000         2.075193         0.326088
 C        -1.911561         2.378109        -1.164124
 C        -0.583237         1.520196        -1.278928
 O        -2.813864         2.773840         1.369043
 C        -1.545293         2.475103         2.227620
 C        -0.791235         2.044564         1.032495
 H         0.441174        -0.092557         1.213517
 H        -2.930808        -0.066489        -0.141075
 H        -2.338068         0.433228         1.455540
 H        -2.821758         2.069974        -1.673326
 H        -1.682920         3.415690        -1.367540
 H        -0.760339         0.743540        -1.994127
 H         0.359184         2.134398        -1.453454
 H        -0.865287         3.317457         2.558031
 H        -1.637937         1.791109         3.050440
 H         0.069818         2.734898         0.586973
