19
Iteration:    22charge 0 multiplicity 1
 O         0.278403        -0.255693         0.278262
 C        -0.683867         0.762669         0.283246
 C        -2.176492         0.417849         0.444285
 C        -2.250594         1.995417         0.176698
 C        -1.836393         2.437561        -1.305424
 C        -0.629009         1.478065        -1.160764
 O        -2.881530         2.611792         1.435755
 C        -1.525835         2.627582         2.156113
 C        -0.687437         2.078864         1.022834
 H         0.594680        -0.393696         1.207514
 H        -2.564868        -0.330518        -0.238518
 H        -2.486146         0.214846         1.462920
 H        -2.603512         2.242978        -2.060826
 H        -1.565566         3.495950        -1.314511
 H        -0.544679         0.672358        -1.907520
 H         0.304661         1.990886        -1.152648
 H        -1.144329         3.641331         2.343955
 H        -1.610916         2.142673         3.143741
 H         0.156061         2.687312         0.819142
