19
Iteration:  2530charge 0 multiplicity 1
 O         0.339563        -0.290265         0.404151
 C        -0.719655         0.709460         0.238702
 C        -2.156934         0.420304         0.320319
 C        -2.221010         2.021344         0.343513
 C        -1.953043         2.383641        -1.099969
 C        -0.642373         1.489331        -1.317649
 O        -2.736582         2.831212         1.386363
 C        -1.557560         2.597437         2.208030
 C        -0.712564         2.010836         0.962156
 H        -0.040988        -1.102016         0.025956
 H        -2.529823        -0.174936        -0.470718
 H        -2.381835         0.079916         1.321828
 H        -2.777697         2.077136        -1.717368
 H        -1.698106         3.449203        -1.204837
 H        -0.649668         0.841866        -2.235929
 H         0.235598         2.087990        -1.294828
 H        -1.195564         3.548117         2.601296
 H        -1.593064         1.792283         2.958266
 H        -0.037524         2.804327         0.651165
