19
Iteration:  2088charge 0 multiplicity 1
 O         0.338540        -0.280022         0.410909
 C        -0.628172         0.773957         0.194270
 C        -2.203145         0.523437         0.362796
 C        -2.126926         2.137877         0.308033
 C        -1.926347         2.412289        -1.247498
 C        -0.656186         1.344273        -1.292990
 O        -2.749824         2.789863         1.409505
 C        -1.611640         2.386303         2.247929
 C        -0.713634         2.140736         0.961491
 H        -0.090951        -0.735647         1.179845
 H        -2.687727         0.161236        -0.471182
 H        -2.743744         0.209959         1.243434
 H        -2.670302         2.076208        -2.008058
 H        -1.640706         3.411992        -1.486993
 H        -0.896372         0.465430        -1.932108
 H         0.210621         1.863252        -1.664256
 H        -1.345472         3.131053         3.017807
 H        -1.800224         1.409972         2.844954
 H         0.065740         2.873218         0.879441
