19
Iteration:  1043
 O         0.265529        -0.312057         0.375871
 C        -0.613042         0.751232         0.154577
 C        -2.100745         0.525985         0.260100
 C        -2.075980         2.124170         0.331710
 C        -1.907598         2.388581        -1.236066
 C        -0.593721         1.444766        -1.214759
 O        -2.832346         2.665331         1.321905
 C        -1.661408         2.445110         2.322712
 C        -0.737646         2.200810         1.060445
 H        -0.164151        -0.923079         1.028939
 H        -2.683281        -0.078155        -0.459093
 H        -2.426607         0.241663         1.261452
 H        -2.723283         1.899044        -1.785409
 H        -1.693888         3.414179        -1.756210
 H        -0.576750         0.689876        -1.985747
 H         0.392118         2.067506        -1.317719
 H        -1.436872         3.340831         2.864182
 H        -1.926092         1.728767         3.141738
 H         0.012326         3.043511         0.833336
