19
Iteration:    46charge 0 multiplicity 1
 O         0.331169        -0.378952         0.313283
 C        -0.631384         0.706606         0.113957
 C        -2.137861         0.515327         0.314546
 C        -2.181856         2.068480         0.393926
 C        -1.887476         2.343919        -1.050413
 C        -0.577708         1.405707        -1.274451
 O        -2.894894         2.630786         1.376156
 C        -1.612173         2.730570         2.245551
 C        -0.775558         2.131182         0.964532
 H         0.523932        -0.395457         1.262797
 H        -2.616663         0.142817        -0.591153
 H        -2.254852        -0.211253         1.162645
 H        -2.604451         2.088993        -1.769393
 H        -1.623199         3.421873        -1.154327
 H        -0.709939         0.746586        -2.047332
 H         0.477334         1.858481        -1.333983
 H        -1.395129         3.777233         2.157612
 H        -1.680124         2.433999         3.311410
 H        -0.035514         2.919200         0.614798
