19
Iteration:  1338charge 0 multiplicity 1
 O         0.348147        -0.223167         0.346426
 C        -0.636052         0.796919         0.244222
 C        -2.128342         0.538059         0.317987
 C        -2.138135         2.159865         0.265280
 C        -1.782428         2.394083        -1.146024
 C        -0.657167         1.338475        -1.182287
 O        -2.812400         2.816862         1.328982
 C        -1.760597         2.385462         2.260784
 C        -0.754880         2.002199         1.085795
 H         0.663297        -0.549930        -0.506440
 H        -2.612874         0.055724        -0.520674
 H        -2.610736         0.186523         1.221779
 H        -2.525082         2.026149        -1.844431
 H        -1.456613         3.420389        -1.345268
 H        -0.999049         0.539162        -1.780978
 H         0.365505         1.568286        -1.606799
 H        -1.395840         3.151876         2.868042
 H        -2.207004         1.488039         2.806773
 H        -0.080628         2.886452         0.898073
