19
Iteration:   818
 O         0.410551        -0.060074         0.568242
 C        -0.692172         0.690466         0.135884
 C        -2.196442         0.553617         0.393333
 C        -2.036995         2.179847         0.281869
 C        -1.889960         2.395295        -1.220660
 C        -0.749702         1.276764        -1.361467
 O        -2.789728         2.783733         1.343577
 C        -1.639772         2.366813         2.279722
 C        -0.731010         2.042009         0.968733
 H         0.305526        -1.010014         0.414482
 H        -2.856265         0.039908        -0.372407
 H        -2.368931         0.059348         1.364912
 H        -2.790223         2.014986        -1.701911
 H        -1.674282         3.404371        -1.645833
 H        -0.841942         0.494308        -2.133481
 H         0.182154         1.697860        -1.576553
 H        -1.367334         3.228282         2.883474
 H        -2.037022         1.426453         2.782518
 H         0.173680         2.667949         0.811445
