19
Iteration:  3978charge 0 multiplicity 1
 O         0.238826        -0.273904         0.226503
 C        -0.649015         0.746817         0.241968
 C        -2.090982         0.541674         0.168145
 C        -2.144100         2.073538         0.317793
 C        -1.772884         2.555397        -1.096989
 C        -0.580809         1.473014        -1.173644
 O        -2.807149         2.700576         1.354739
 C        -1.762508         2.404433         2.273371
 C        -0.757161         1.961846         1.079889
 H         0.369698        -0.569159         1.149280
 H        -2.533090        -0.041055        -0.623982
 H        -2.448557        -0.037198         1.023069
 H        -2.557665         2.577969        -1.891016
 H        -1.457793         3.548332        -0.987684
 H        -0.590716         0.683394        -2.029913
 H         0.451089         1.983069        -1.209652
 H        -1.395510         3.226310         2.967100
 H        -2.165713         1.555406         2.954683
 H        -0.072129         2.808805         0.752643
