19
Iteration:   550charge 0 multiplicity 1
 O         0.223528        -0.311877         0.499030
 C        -0.654196         0.774384         0.105077
 C        -2.101188         0.546557         0.423578
 C        -2.188456         2.082843         0.295012
 C        -1.962367         2.248893        -1.192060
 C        -0.612184         1.311247        -1.290304
 O        -2.784320         2.862021         1.469609
 C        -1.492995         2.492182         2.148840
 C        -0.776836         2.166281         0.870146
 H         1.002170         0.071103         0.966181
 H        -2.667713        -0.120255        -0.296365
 H        -2.132974         0.091027         1.413571
 H        -2.835329         1.844680        -1.883719
 H        -1.668414         3.218598        -1.486815
 H        -1.060196         0.495543        -1.917591
 H         0.332046         1.802598        -1.651708
 H        -1.228785         3.356254         2.924378
 H        -1.602893         1.494911         2.613762
 H        -0.291235         3.122227         0.638698
