19
Iteration:  3353charge 0 multiplicity 1
 O         0.191267        -0.289021         0.361669
 C        -0.583655         0.835522         0.154223
 C        -2.157804         0.545002         0.247865
 C        -2.116615         2.170666         0.235402
 C        -1.680738         2.540496        -1.173358
 C        -0.612173         1.417952        -1.244875
 O        -2.806133         2.730512         1.464658
 C        -1.758174         2.169649         2.271760
 C        -0.808329         2.101043         1.106355
 H         1.099706        -0.211134        -0.003232
 H        -2.578060        -0.027695        -0.578840
 H        -2.679321         0.347934         1.254980
 H        -2.523090         2.314609        -1.828508
 H        -1.170643         3.521520        -1.337949
 H        -1.026653         0.655130        -1.914300
 H         0.379576         1.701085        -1.646872
 H        -1.474142         2.811302         3.105996
 H        -2.135871         1.200178         2.683099
 H        -0.029371         2.906363         1.019889
