19
Iteration:  4216
 O         0.224787        -0.261908         0.388283
 C        -0.656815         0.707430         0.139561
 C        -2.094600         0.469871         0.232160
 C        -2.053062         2.120870         0.307691
 C        -1.817559         2.628604        -1.072895
 C        -0.573992         1.524476        -1.277751
 O        -2.790101         2.682021         1.321209
 C        -1.742162         2.301495         2.257719
 C        -0.762151         2.029654         1.063873
 H        -0.304269        -0.837996         0.971575
 H        -2.768084        -0.110201        -0.450896
 H        -2.551673         0.201104         1.197672
 H        -2.619495         2.449914        -1.912235
 H        -1.335983         3.599986        -1.109647
 H        -0.844751         0.787220        -2.054119
 H         0.340103         1.985771        -1.420431
 H        -1.247135         3.228018         2.793794
 H        -1.928973         1.544523         2.981828
 H         0.131499         2.685630         0.979896
