19
Iteration:  2031
 O         0.293805        -0.343277         0.307283
 C        -0.593177         0.744400         0.194167
 C        -2.115358         0.475549         0.291316
 C        -2.193957         2.054960         0.305822
 C        -1.868736         2.433677        -1.079598
 C        -0.696729         1.358923        -1.224137
 O        -2.776079         2.863818         1.356327
 C        -1.617094         2.521705         2.244702
 C        -0.773920         2.023611         1.025197
 H         0.490256        -0.541331         1.221930
 H        -2.588795        -0.043400        -0.604410
 H        -2.632792         0.383565         1.235062
 H        -2.554519         2.153846        -1.880120
 H        -1.393576         3.457050        -1.267246
 H        -0.827854         0.480086        -1.897251
 H         0.146935         2.010341        -1.566969
 H        -1.195166         3.464508         2.578999
 H        -1.826986         1.708097         3.036976
 H        -0.174131         2.887765         0.572440
