19
Iteration:  3698charge 0 multiplicity 1
 O         0.148326        -0.366503         0.324375
 C        -0.666730         0.764707         0.090664
 C        -2.158906         0.514101         0.161989
 C        -2.167306         2.014972         0.399005
 C        -1.747774         2.397328        -1.117155
 C        -0.460069         1.615657        -1.217771
 O        -2.883822         2.750740         1.413029
 C        -1.706288         2.428465         2.289266
 C        -0.756576         1.984960         1.107356
 H         1.030236        -0.066797         0.039121
 H        -2.713075         0.242329        -0.816702
 H        -2.428621        -0.176076         1.023154
 H        -2.398938         2.309091        -1.908886
 H        -1.429917         3.478723        -1.145568
 H        -0.270989         1.067656        -2.099112
 H         0.482918         2.276674        -1.081141
 H        -1.308534         3.349125         2.734353
 H        -1.854100         1.698873         3.166007
 H         0.026392         2.665151         0.872486
