19
Iteration:   913charge 0 multiplicity 1
 O         0.196795        -0.340632         0.431043
 C        -0.624825         0.756268         0.200657
 C        -2.101020         0.474593         0.284423
 C        -2.138708         2.062876         0.316650
 C        -1.912562         2.317349        -1.208029
 C        -0.618995         1.426295        -1.190936
 O        -2.794761         2.739516         1.379424
 C        -1.604141         2.542535         2.243865
 C        -0.756159         2.129658         0.964533
 H         1.100002         0.029457         0.456441
 H        -2.601557         0.087349        -0.648612
 H        -2.513096         0.004388         1.168780
 H        -2.740857         1.999265        -1.779029
 H        -1.730182         3.450930        -1.356761
 H        -0.419962         0.851408        -2.093160
 H         0.196782         2.233220        -1.160481
 H        -1.215018         3.415225         2.662622
 H        -1.799740         1.702329         2.927277
 H        -0.218722         2.965158         0.664628
