19
Iteration:  4085
 O         0.308176        -0.247553         0.276134
 C        -0.652145         0.683849         0.197362
 C        -2.244881         0.577267         0.240594
 C        -2.105617         2.096092         0.289635
 C        -1.651592         2.547343        -1.173471
 C        -0.550711         1.494299        -1.179620
 O        -2.909719         2.627283         1.418755
 C        -1.655984         2.345925         2.298638
 C        -0.846722         2.068898         1.032201
 H        -0.076752        -0.934803         0.855598
 H        -2.772128         0.118356        -0.595863
 H        -2.575204         0.310334         1.270348
 H        -2.451719         2.270856        -1.990244
 H        -1.305380         3.553741        -1.277924
 H        -0.582192         0.881464        -2.083305
 H         0.360114         1.995455        -1.208223
 H        -1.313653         3.385140         2.697693
 H        -1.836181         1.601106         3.027868
 H         0.086515         2.620697         0.858132
