19
Iteration:   137charge 0 multiplicity 1
 O         0.308663        -0.190851         0.584165
 C        -0.650193         0.777353         0.231322
 C        -2.097527         0.424356         0.248131
 C        -2.165395         2.045787         0.298130
 C        -1.960241         2.384799        -1.201610
 C        -0.725350         1.336167        -1.299758
 O        -2.772172         2.802186         1.384246
 C        -1.501491         2.489484         2.236314
 C        -0.791206         2.082173         0.967110
 H         0.616961        -0.718832        -0.189120
 H        -2.478462        -0.148610        -0.657672
 H        -2.292255         0.042513         1.244086
 H        -2.929104         2.304828        -1.785090
 H        -1.599201         3.397396        -1.282941
 H        -0.978009         0.443824        -1.973071
 H         0.137461         1.901597        -1.741572
 H        -1.178002         3.497801         2.643022
 H        -1.648114         1.690923         3.038361
 H        -0.119336         2.974249         0.605839
