19
Iteration:  4374
 O         0.251472        -0.359448         0.329032
 C        -0.541311         0.728885         0.187993
 C        -2.151810         0.468477         0.234953
 C        -2.150898         2.148632         0.268446
 C        -1.859845         2.545008        -1.136128
 C        -0.593404         1.524142        -1.218416
 O        -2.734076         2.886212         1.334059
 C        -1.760848         2.257577         2.316898
 C        -0.792595         1.937211         1.053626
 H         0.606830        -0.196627         1.234762
 H        -2.491986        -0.060520        -0.631475
 H        -2.594752        -0.039751         1.137358
 H        -2.646284         2.303283        -1.858467
 H        -1.531807         3.726702        -1.273447
 H        -0.693272         0.973702        -2.145998
 H         0.363096         2.082900        -1.406413
 H        -1.344359         2.894818         3.013223
 H        -2.150500         1.403475         2.966954
 H        -0.166794         2.808211         0.998113
