19
Iteration:    32
 O         0.260460        -0.291509         0.278394
 C        -0.658212         0.716627         0.200080
 C        -2.208240         0.483067         0.380186
 C        -2.145793         1.975199         0.290117
 C        -1.816315         2.397779        -1.130307
 C        -0.546375         1.464135        -1.170173
 O        -2.876797         2.560558         1.466344
 C        -1.594518         2.732244         2.089774
 C        -0.738657         2.087571         0.983414
 H         0.647890        -0.312930         1.182757
 H        -2.802157        -0.063528        -0.348500
 H        -2.497706         0.333897         1.404595
 H        -2.647486         2.100816        -1.823260
 H        -1.623085         3.455751        -1.289372
 H        -0.560846         0.743383        -2.043201
 H         0.307210         2.050257        -1.250488
 H        -1.305519         3.815572         2.066899
 H        -1.648581         2.131233         3.006563
 H        -0.095984         2.792973         0.598583
