19
Iteration:  3758
 O         0.226308        -0.250365         0.379673
 C        -0.606088         0.797774         0.137423
 C        -2.101329         0.603553         0.208909
 C        -2.089582         2.136401         0.330854
 C        -1.715545         2.527777        -1.133339
 C        -0.599384         1.385236        -1.335590
 O        -2.784497         2.803361         1.360496
 C        -1.851713         2.162733         2.366920
 C        -0.789483         1.980363         1.111512
 H         1.061755         0.090650         0.011093
 H        -2.541358         0.145552        -0.636547
 H        -2.333868         0.238702         1.191606
 H        -2.740921         2.288032        -1.734644
 H        -1.432060         3.562489        -1.178945
 H        -1.195559         0.529708        -1.911121
 H         0.338179         1.658156        -1.916861
 H        -1.483858         2.963100         3.107537
 H        -2.271424         1.334925         2.919242
 H        -0.013788         2.860301         1.206202
