19
Iteration:  2986
 O         0.318118        -0.240582         0.386590
 C        -0.622502         0.739911         0.122049
 C        -2.223324         0.557590         0.383006
 C        -2.086747         2.198248         0.286778
 C        -1.804128         2.495265        -1.192869
 C        -0.692657         1.344265        -1.282031
 O        -2.815792         2.775725         1.398446
 C        -1.700192         2.301661         2.292640
 C        -0.694001         2.009955         1.035663
 H         1.043311        -0.200902        -0.270573
 H        -2.732682        -0.088988        -0.307667
 H        -2.452932         0.235191         1.507002
 H        -2.668759         2.207689        -1.896438
 H        -1.302811         3.418566        -1.443847
 H        -1.193946         0.597222        -1.936567
 H         0.273852         1.653505        -1.658000
 H        -1.562353         3.184684         2.979632
 H        -2.086288         1.421020         2.849792
 H        -0.051660         2.894760         1.015993
