19
Iteration:  3802charge 0 multiplicity 1
 O         0.176607        -0.273622         0.381296
 C        -0.660649         0.763098         0.111090
 C        -2.218354         0.564253         0.237702
 C        -2.144581         2.053523         0.274818
 C        -1.819690         2.504205        -1.054245
 C        -0.507776         1.569743        -1.190628
 O        -2.781641         2.729710         1.323893
 C        -1.620040         2.243532         2.273382
 C        -0.827959         1.982995         1.019153
 H         0.967083        -0.003452         0.876408
 H        -2.788274         0.092347        -0.520784
 H        -2.452634         0.182496         1.250531
 H        -2.383452         2.144422        -2.004630
 H        -1.568134         3.540970        -1.043626
 H        -0.457671         0.935192        -2.184593
 H         0.482410         2.043249        -0.987821
 H        -1.151482         3.115291         2.825408
 H        -1.961405         1.416057         2.899852
 H        -0.008481         2.700486         0.685803
