19
Iteration:  2906charge 0 multiplicity 1
 O         0.291558        -0.357692         0.229797
 C        -0.714469         0.748572         0.265089
 C        -2.198118         0.501911         0.367586
 C        -2.179431         2.121009         0.255170
 C        -1.833474         2.409462        -1.175003
 C        -0.637349         1.472658        -1.142985
 O        -2.831045         2.786994         1.375282
 C        -1.593039         2.385872         2.176817
 C        -0.660870         2.075137         1.042377
 H         0.868347        -0.170251         1.006311
 H        -2.931913         0.214834        -0.453888
 H        -2.370019        -0.017398         1.246454
 H        -2.686769         2.063747        -1.858384
 H        -1.767261         3.495815        -1.409472
 H        -0.592168         0.732472        -1.902483
 H         0.389490         2.005162        -1.271281
 H        -1.340101         3.322521         2.692460
 H        -1.804171         1.740951         2.983718
 H         0.082959         2.807904         0.948698
