19
Iteration:  3285charge 0 multiplicity 1
 O         0.157303        -0.356140         0.172841
 C        -0.586243         0.832078         0.192796
 C        -2.164082         0.491529         0.222621
 C        -2.093804         2.102810         0.310191
 C        -1.761193         2.470094        -1.123386
 C        -0.582197         1.481900        -1.185960
 O        -2.874045         2.742579         1.367532
 C        -1.706546         2.366065         2.289176
 C        -0.719646         2.043928         1.153020
 H         0.765073        -0.302381         0.938762
 H        -2.601185        -0.100737        -0.595479
 H        -2.680450         0.123401         1.206815
 H        -2.464397         2.327656        -1.940906
 H        -1.430184         3.596881        -1.071871
 H        -0.456824         0.723563        -1.924087
 H         0.332765         2.139822        -1.164144
 H        -1.384154         3.234536         2.816714
 H        -1.982332         1.481060         2.866818
 H         0.144305         2.773154         1.049559
