19
Iteration:  1822
 O         0.200815        -0.397365         0.428311
 C        -0.658905         0.709297         0.193759
 C        -2.166953         0.519391         0.240656
 C        -2.121099         2.104536         0.293261
 C        -1.843325         2.387542        -1.204339
 C        -0.620750         1.382062        -1.269387
 O        -2.835003         2.741472         1.426542
 C        -1.587564         2.516966         2.322468
 C        -0.717771         2.188044         0.940720
 H         1.035806         0.077865         0.511370
 H        -2.682654        -0.082871        -0.543176
 H        -2.450139         0.370618         1.326987
 H        -2.688870         2.131026        -1.896758
 H        -1.483517         3.439585        -1.273734
 H        -0.871635         0.525583        -1.934809
 H         0.375091         1.854890        -1.414778
 H        -1.350589         3.498794         2.817856
 H        -1.718812         1.575016         3.050098
 H        -0.009218         3.046820         0.614492
