19
Iteration:   354
 O         0.436493        -0.147475         0.417301
 C        -0.642778         0.760520         0.199796
 C        -2.155379         0.460493         0.395616
 C        -2.112264         2.155597         0.315464
 C        -1.978506         2.253189        -1.233284
 C        -0.796668         1.182084        -1.323841
 O        -2.721228         2.919627         1.423977
 C        -1.674422         2.514388         2.265254
 C        -0.685266         2.097848         1.011081
 H         0.536050        -0.696411        -0.383994
 H        -2.722800        -0.212108        -0.381552
 H        -2.593246         0.153502         1.365252
 H        -2.950455         1.984946        -1.793760
 H        -1.673779         3.191525        -1.642831
 H        -1.165267         0.299375        -1.870929
 H         0.162679         1.400363        -1.812182
 H        -1.227783         3.399978         2.797569
 H        -1.972259         1.838577         3.050599
 H         0.134723         2.855484         0.798948
