19
Iteration:   788
 O         0.268777        -0.250545         0.594626
 C        -0.615192         0.785212         0.194581
 C        -2.151085         0.501796         0.368006
 C        -2.201351         2.108382         0.215410
 C        -1.983736         2.356522        -1.197077
 C        -0.647041         1.347299        -1.234951
 O        -2.765003         2.805580         1.382044
 C        -1.544336         2.417223         2.206759
 C        -0.774482         2.136461         0.895326
 H         0.828211        -0.437835        -0.202482
 H        -2.593513        -0.098582        -0.397155
 H        -2.296683        -0.092365         1.274852
 H        -2.837832         2.044526        -1.934450
 H        -1.665623         3.316624        -1.516866
 H        -0.561538         0.462747        -1.974236
 H         0.211516         2.090478        -1.346438
 H        -1.114088         3.266907         2.833951
 H        -1.714211         1.501790         2.732521
 H         0.102713         2.881228         0.677407
