19
Iteration:  1385
 O         0.302110        -0.128134         0.524368
 C        -0.684538         0.764545         0.191622
 C        -2.179943         0.468033         0.276973
 C        -2.180229         2.056802         0.200744
 C        -1.873706         2.511470        -1.197253
 C        -0.612436         1.411951        -1.209912
 O        -2.745531         2.859058         1.385039
 C        -1.625087         2.284333         2.206818
 C        -0.750701         1.985865         0.994599
 H         0.153744        -1.057509         0.215838
 H        -2.569648        -0.258969        -0.463693
 H        -2.336265         0.073976         1.310128
 H        -2.677708         2.095054        -1.907329
 H        -1.567422         3.520868        -1.397360
 H        -0.651264         0.650609        -2.080577
 H         0.351394         1.836582        -1.301203
 H        -1.330576         3.199697         2.785918
 H        -1.947755         1.364917         2.826262
 H        -0.029842         2.742800         1.041668
