19
Iteration:  1668charge 0 multiplicity 1
 O         0.287001        -0.141083         0.578905
 C        -0.709780         0.777380         0.179295
 C        -2.230113         0.551805         0.232365
 C        -2.178360         2.053726         0.294597
 C        -1.835838         2.470703        -1.207917
 C        -0.604569         1.388800        -1.254216
 O        -2.813183         2.633495         1.390850
 C        -1.533714         2.474489         2.213193
 C        -0.689852         1.974993         1.009812
 H         0.031666        -0.941423         0.053863
 H        -2.937345         0.232317        -0.524252
 H        -2.408423         0.083240         1.181652
 H        -2.596225         2.474259        -2.076551
 H        -1.347910         3.379306        -1.175780
 H        -0.895199         0.509731        -1.918692
 H         0.243477         1.869699        -1.665002
 H        -1.243963         3.431271         2.461102
 H        -1.627070         1.708478         3.057104
 H         0.006803         2.717909         0.636130
