19
Iteration:   996
 O         0.432178        -0.216251         0.377125
 C        -0.652972         0.747814         0.155345
 C        -2.220542         0.430922         0.394776
 C        -2.144578         2.079612         0.267364
 C        -1.808053         2.341558        -1.175912
 C        -0.617554         1.424240        -1.231790
 O        -2.756152         2.828564         1.325936
 C        -1.734571         2.434178         2.283243
 C        -0.858183         2.106244         1.019648
 H         0.075333        -1.074363         0.101342
 H        -2.749614        -0.132887        -0.367216
 H        -2.433415        -0.006777         1.365622
 H        -2.638710         2.244567        -1.947503
 H        -1.520308         3.370199        -1.098327
 H        -0.653677         0.724572        -2.069539
 H         0.265715         2.049051        -1.384114
 H        -1.377960         3.372354         2.888243
 H        -1.919287         1.691764         3.064225
 H        -0.002582         2.840342         0.784241
