19
Iteration:  1840charge 0 multiplicity 1
 O         0.221404        -0.294586         0.328823
 C        -0.625712         0.793915         0.185533
 C        -2.166399         0.485912         0.419489
 C        -2.162858         2.114375         0.320370
 C        -1.862374         2.364260        -1.136012
 C        -0.611821         1.365222        -1.232735
 O        -2.778973         2.884659         1.357561
 C        -1.615620         2.435788         2.148908
 C        -0.787365         1.993811         1.031217
 H         1.080808        -0.067585         0.705183
 H        -2.617957         0.170256        -0.490470
 H        -2.425736        -0.141957         1.279774
 H        -2.665951         2.034976        -1.827467
 H        -1.528017         3.298651        -1.445567
 H        -0.633944         0.643409        -2.056812
 H         0.306370         1.925402        -1.296372
 H        -1.217803         3.224710         2.739769
 H        -1.890319         1.710367         2.835875
 H        -0.088532         2.768086         0.870638
