19
Iteration:  2254charge 0 multiplicity 1
 O         0.411048        -0.215212         0.289929
 C        -0.626199         0.728619         0.185230
 C        -2.202924         0.495891         0.387396
 C        -2.128274         2.057883         0.367544
 C        -1.866383         2.366938        -1.110642
 C        -0.664254         1.338922        -1.241387
 O        -2.804163         2.994283         1.332569
 C        -1.670685         2.390294         2.267040
 C        -0.764412         2.011251         1.024313
 H         0.008137        -1.071250         0.014227
 H        -2.544768        -0.021754        -0.477576
 H        -2.488063         0.002246         1.335974
 H        -2.591600         2.070294        -1.883267
 H        -1.540416         3.410152        -1.265772
 H        -1.034873         0.588715        -1.927847
 H         0.265889         1.829493        -1.653750
 H        -1.305785         3.400367         2.720702
 H        -2.104914         1.814611         3.111932
 H         0.129034         2.491499         0.653315
