19
Iteration:  2884charge 0 multiplicity 1
 O         0.282071        -0.319331         0.223166
 C        -0.580912         0.788396         0.152333
 C        -2.093714         0.524982         0.416869
 C        -2.086231         2.074384         0.288256
 C        -1.808261         2.415439        -1.078820
 C        -0.655109         1.347705        -1.348954
 O        -2.789118         2.838087         1.369007
 C        -1.783592         2.456204         2.344683
 C        -0.758415         2.042254         0.998050
 H         0.399878        -0.554289         1.155523
 H        -2.727644        -0.110925        -0.293679
 H        -2.384488         0.280709         1.372587
 H        -2.786282         2.305172        -1.652019
 H        -1.489345         3.482135        -1.210406
 H        -0.711053         0.540103        -2.034536
 H         0.288497         1.949717        -1.624605
 H        -1.449292         3.154894         3.125457
 H        -2.217715         1.627163         2.851732
 H        -0.191038         2.878761         0.695171
