19
Iteration:  4229
 O         0.269174        -0.338874         0.299586
 C        -0.621487         0.802373         0.186180
 C        -2.173225         0.579305         0.279624
 C        -2.107703         2.099479         0.270321
 C        -1.778775         2.513432        -1.076031
 C        -0.563718         1.474950        -1.202618
 O        -2.837751         2.751662         1.367856
 C        -1.724331         2.322765         2.211409
 C        -0.724622         2.019324         1.072366
 H        -0.065316        -1.126188         0.755989
 H        -2.462436         0.101976        -0.693826
 H        -2.383340         0.055572         1.179942
 H        -2.684421         2.441908        -1.753908
 H        -1.543180         3.652564        -1.093996
 H        -0.680209         0.805501        -2.040158
 H         0.380422         1.944535        -1.438939
 H        -1.574029         3.099474         3.021667
 H        -2.078682         1.442575         2.746966
 H        -0.063009         2.884045         0.878097
