19
Iteration:  1049
 O         0.271779        -0.268449         0.361536
 C        -0.639775         0.726764         0.129432
 C        -2.097813         0.546063         0.276419
 C        -2.037776         2.157005         0.304267
 C        -1.863045         2.423804        -1.250730
 C        -0.579023         1.382422        -1.209374
 O        -2.859960         2.674325         1.355791
 C        -1.665930         2.457344         2.343051
 C        -0.790783         2.155891         1.067386
 H        -0.001013        -0.833378         1.103969
 H        -2.472094        -0.050838        -0.572739
 H        -2.353107         0.152236         1.273220
 H        -2.781227         1.962078        -1.679946
 H        -1.753120         3.348872        -1.726255
 H        -0.676169         0.564937        -1.960414
 H         0.323543         1.906804        -1.294295
 H        -1.479095         3.435484         2.929473
 H        -1.791192         1.596678         3.010714
 H        -0.094482         2.879970         0.649080
