19
Iteration:  2690
 O         0.292912        -0.280728         0.437769
 C        -0.648753         0.774496         0.170323
 C        -2.138355         0.545699         0.464668
 C        -2.070312         2.130751         0.313803
 C        -1.964954         2.443382        -1.232767
 C        -0.677664         1.424295        -1.361335
 O        -2.763584         2.744891         1.386933
 C        -1.600684         2.406588         2.248029
 C        -0.692524         2.013426         0.944581
 H        -0.229245        -1.077095         0.572854
 H        -2.797785         0.117719        -0.364122
 H        -2.236633         0.266851         1.478532
 H        -2.899118         1.981681        -1.640192
 H        -1.871158         3.480604        -1.576322
 H        -0.713869         0.649429        -2.081242
 H         0.211850         2.113806        -1.551845
 H        -1.335797         3.369795         2.816258
 H        -1.651549         1.589992         2.956945
 H        -0.000695         2.863460         0.765821
