19
Iteration:  3128charge 0 multiplicity 1
 O         0.322428        -0.266425         0.285024
 C        -0.693856         0.659231         0.115024
 C        -2.173059         0.428156         0.332735
 C        -2.103696         2.044030         0.285681
 C        -1.759402         2.533303        -1.099693
 C        -0.683859         1.495181        -1.284507
 O        -2.791849         2.882779         1.300590
 C        -1.710151         2.325162         2.331648
 C        -0.785936         1.948524         1.081382
 H         0.800101         0.141423         1.021169
 H        -2.905997        -0.068728        -0.298405
 H        -2.297916         0.037203         1.362929
 H        -2.611252         2.612888        -1.846355
 H        -1.469148         3.572729        -1.000452
 H        -0.702755         0.991713        -2.273095
 H         0.271933         1.995468        -1.175782
 H        -1.120319         3.084438         2.875952
 H        -2.176743         1.625090         2.946799
 H         0.059007         2.583226         0.997495
