19
Iteration:  1906charge 0 multiplicity 1
 O         0.213370        -0.294015         0.355935
 C        -0.652665         0.766715         0.190576
 C        -2.158559         0.544096         0.332982
 C        -2.178959         2.103729         0.315429
 C        -1.799672         2.402008        -1.223222
 C        -0.643926         1.298808        -1.260438
 O        -2.755944         2.753963         1.382639
 C        -1.576403         2.438060         2.280222
 C        -0.795055         2.157191         0.990322
 H         0.843969        -0.176824         1.079520
 H        -2.743352         0.105260        -0.450512
 H        -2.559377         0.187142         1.318440
 H        -2.682601         2.285677        -1.894007
 H        -1.408043         3.356211        -1.384826
 H        -0.771340         0.460646        -1.951085
 H         0.347061         1.668264        -1.456636
 H        -1.363285         3.275397         2.904442
 H        -1.688743         1.637147         2.995408
 H        -0.214052         2.958214         0.646849
