19
Iteration:  3141
 O         0.307147        -0.379794         0.249060
 C        -0.624974         0.750038         0.174332
 C        -2.140227         0.486677         0.336980
 C        -2.174681         2.099406         0.307289
 C        -1.848981         2.567290        -1.094024
 C        -0.615363         1.529584        -1.213963
 O        -2.755723         2.842330         1.297239
 C        -1.716382         2.360524         2.272490
 C        -0.816370         1.900600         1.111287
 H         1.143493        -0.134617         0.694574
 H        -2.542298        -0.149443        -0.535134
 H        -2.409486         0.148097         1.264340
 H        -2.550643         2.327978        -1.836457
 H        -1.415365         3.582496        -1.142746
 H        -0.915394         0.665145        -1.858322
 H         0.261774         1.976383        -1.590145
 H        -1.448050         3.195061         2.894559
 H        -2.130610         1.568319         2.848507
 H        -0.155419         2.733120         0.920765
