19
Iteration:  2845
 O         0.407658        -0.171273         0.352810
 C        -0.666609         0.724155         0.306566
 C        -2.220055         0.565814         0.310215
 C        -2.096639         2.123780         0.326044
 C        -1.827444         2.476997        -1.113801
 C        -0.720664         1.304420        -1.261774
 O        -2.775862         2.812309         1.338007
 C        -1.689866         2.321317         2.243643
 C        -0.711868         2.043879         0.931964
 H         0.087076        -1.070850         0.109486
 H        -2.808823         0.030051        -0.387104
 H        -2.538008         0.253182         1.406833
 H        -2.780797         2.343699        -1.594498
 H        -1.344020         3.412430        -1.287396
 H        -1.048787         0.459628        -1.926554
 H         0.206544         1.770942        -1.506558
 H        -1.403287         3.265160         2.720949
 H        -1.962228         1.396140         2.842562
 H         0.108878         2.812635         0.793936
