19
Iteration:   505
 O         0.375177        -0.248043         0.466283
 C        -0.673167         0.709954         0.190988
 C        -2.123327         0.532510         0.371811
 C        -2.104131         2.089906         0.293072
 C        -1.980517         2.374546        -1.162487
 C        -0.789074         1.268169        -1.331351
 O        -2.750885         2.789337         1.390824
 C        -1.580800         2.592816         2.197661
 C        -0.721556         2.007943         0.950022
 H         0.956623        -0.044306         1.233153
 H        -2.771555         0.121931        -0.418772
 H        -2.505520         0.174931         1.313625
 H        -2.860606         1.936878        -1.786329
 H        -1.861424         3.401722        -1.461629
 H        -1.155172         0.415781        -1.931767
 H         0.191736         1.702634        -1.712847
 H        -1.139449         3.681061         2.308756
 H        -1.884277         2.044768         3.103236
 H         0.135128         2.636375         0.662771
