19
Iteration:  2059charge 0 multiplicity 1
 O         0.259984        -0.227498         0.456013
 C        -0.715520         0.744751         0.082589
 C        -2.197426         0.448506         0.396019
 C        -2.135792         2.143584         0.307134
 C        -1.803336         2.483187        -1.151398
 C        -0.626752         1.369287        -1.288179
 O        -2.857258         2.678940         1.434880
 C        -1.484932         2.453610         2.207193
 C        -0.720115         2.073212         0.908741
 H        -0.092443        -0.547678         1.304080
 H        -2.862542        -0.125602        -0.359210
 H        -2.828402         0.261162         1.316264
 H        -2.513669         2.210078        -1.961598
 H        -1.512264         3.479139        -1.498440
 H        -0.703058         0.645455        -2.090665
 H         0.312182         1.907558        -1.500866
 H        -1.111739         3.442459         2.539090
 H        -1.531560         1.732719         2.969702
 H         0.025812         2.820995         0.622957
