19
Iteration:   696charge 0 multiplicity 1
 O         0.380672        -0.165800         0.455510
 C        -0.626600         0.828604         0.171072
 C        -2.128498         0.491157         0.383362
 C        -2.174102         2.049691         0.301524
 C        -1.875773         2.259907        -1.188144
 C        -0.679432         1.221776        -1.293095
 O        -2.754862         2.959951         1.465473
 C        -1.608401         2.403186         2.181885
 C        -0.850884         2.127881         0.884681
 H        -0.077817        -0.911434         0.855216
 H        -2.656048        -0.146826        -0.399828
 H        -2.353503         0.088815         1.399446
 H        -2.693377         2.056942        -1.791629
 H        -1.479632         3.308654        -1.480598
 H        -0.924474         0.549907        -2.060498
 H         0.172526         1.801579        -1.543310
 H        -1.114910         3.151668         2.735147
 H        -1.883546         1.501927         2.823644
 H        -0.251984         2.964284         0.574123
