19
Iteration:  3957
 O         0.316448        -0.395766         0.316095
 C        -0.605181         0.786404         0.125631
 C        -2.164683         0.486561         0.296166
 C        -2.125720         2.080891         0.293781
 C        -1.686126         2.558664        -1.091744
 C        -0.498336         1.546806        -1.257316
 O        -2.956006         2.729691         1.408985
 C        -1.657636         2.305003         2.249665
 C        -0.826291         2.136950         1.042292
 H        -0.313056        -0.956467         0.810273
 H        -2.827049         0.008647        -0.424538
 H        -2.556870         0.006974         1.173490
 H        -2.439450         2.374092        -1.860477
 H        -1.569709         3.625958        -0.979546
 H        -0.864954         0.958234        -2.197371
 H         0.567350         1.973706        -1.449743
 H        -1.503231         3.165905         2.912529
 H        -2.019846         1.449466         2.893017
 H        -0.048429         2.878954         0.755645
