19
Iteration:  3039
 O         0.317912        -0.308948         0.377200
 C        -0.618879         0.724271         0.187993
 C        -2.168996         0.442816         0.372751
 C        -2.143315         2.048091         0.303494
 C        -1.874721         2.508955        -1.088784
 C        -0.626283         1.554440        -1.264202
 O        -2.799069         2.814624         1.362174
 C        -1.633829         2.417610         2.194174
 C        -0.783741         1.975274         0.976559
 H         0.068566        -1.033927        -0.233499
 H        -2.643577        -0.122177        -0.382812
 H        -2.375611         0.013501         1.451024
 H        -2.726102         2.421703        -1.872564
 H        -1.649835         3.552556        -1.235155
 H        -0.438123         0.955713        -2.163141
 H         0.317293         2.136290        -1.116143
 H        -1.241165         3.187556         2.885902
 H        -2.007428         1.678499         2.860639
 H         0.011906         2.708089         0.932007
