19
Iteration:  1211
 O         0.423590        -0.183962         0.338479
 C        -0.638639         0.770665         0.234525
 C        -2.207833         0.496626         0.309027
 C        -2.137959         2.078966         0.305152
 C        -1.800045         2.478509        -1.156527
 C        -0.657343         1.319268        -1.244881
 O        -2.779683         2.818900         1.308492
 C        -1.677573         2.396531         2.259876
 C        -0.825305         2.012837         1.049008
 H        -0.040784        -0.769272         0.963891
 H        -2.391867        -0.172568        -0.559806
 H        -2.593458         0.088554         1.262618
 H        -2.708764         2.338633        -1.820488
 H        -1.474780         3.497497        -1.300223
 H        -1.134249         0.479110        -1.853733
 H         0.254041         1.668228        -1.632674
 H        -1.142177         3.159820         2.819032
 H        -2.090608         1.699529         2.926262
 H        -0.215420         2.863198         0.903980
