19
Iteration:  1218
 O         0.396100        -0.155535         0.346335
 C        -0.624641         0.789471         0.201001
 C        -2.212366         0.482715         0.359659
 C        -2.133037         2.105921         0.292602
 C        -1.770310         2.451249        -1.188759
 C        -0.697052         1.336590        -1.265914
 O        -2.730269         2.796094         1.355847
 C        -1.720249         2.376655         2.204802
 C        -0.838060         2.030954         1.055233
 H         0.290464        -0.820930         1.076071
 H        -2.841636        -0.059701        -0.364550
 H        -2.581331         0.088579         1.288273
 H        -2.552952         2.279677        -1.895806
 H        -1.420788         3.518224        -1.308418
 H        -0.993801         0.543947        -1.876319
 H         0.382163         1.545540        -1.559716
 H        -1.343756         3.140335         2.865576
 H        -2.163708         1.476504         2.852411
 H        -0.052776         2.811208         0.917444
