19
Iteration:   641
 O         0.295155        -0.240360         0.577043
 C        -0.612558         0.760663         0.155791
 C        -2.165984         0.498766         0.413646
 C        -2.134278         2.049458         0.293657
 C        -1.966637         2.318617        -1.198889
 C        -0.663204         1.331310        -1.307438
 O        -2.850433         2.785903         1.399482
 C        -1.526021         2.559271         2.177120
 C        -0.694782         2.143649         0.922919
 H         0.518123        -0.777292        -0.186929
 H        -2.687389        -0.050338        -0.432303
 H        -2.374258         0.023132         1.427406
 H        -2.744926         1.942006        -1.811122
 H        -1.683287         3.403911        -1.463038
 H        -0.998371         0.579448        -1.993787
 H         0.293739         1.773893        -1.612891
 H        -1.232147         3.488970         2.632340
 H        -1.675447         1.786985         2.973870
 H         0.048059         2.810125         0.511565
