19
Iteration:  4078charge 0 multiplicity 1
 O         0.338489        -0.300436         0.338702
 C        -0.689813         0.723406         0.145478
 C        -2.297423         0.600752         0.259486
 C        -2.098296         2.125055         0.278757
 C        -1.674743         2.546129        -1.136465
 C        -0.535174         1.510920        -1.281953
 O        -2.910552         2.599355         1.433030
 C        -1.723309         2.396166         2.294363
 C        -0.749758         2.039581         1.021385
 H         0.160357        -1.008497         0.989119
 H        -2.840184         0.094547        -0.560867
 H        -2.604665         0.146052         1.161213
 H        -2.464977         2.325839        -1.787678
 H        -1.281276         3.564388        -1.303846
 H        -0.650618         0.815457        -2.153247
 H         0.486218         2.086708        -1.178950
 H        -1.310951         3.260824         2.776852
 H        -1.737890         1.439439         2.943063
 H         0.034733         2.831052         0.929702
