19
Iteration:  1617charge 0 multiplicity 1
 O         0.296488        -0.219330         0.418587
 C        -0.641144         0.831886         0.160795
 C        -2.129756         0.471122         0.435044
 C        -2.155557         2.086016         0.305221
 C        -1.844996         2.347815        -1.108043
 C        -0.565990         1.388089        -1.258715
 O        -2.766610         2.953439         1.293507
 C        -1.699287         2.268296         2.220797
 C        -0.772559         2.081292         1.027519
 H         0.083558        -0.870022        -0.262935
 H        -2.604047        -0.070667        -0.414403
 H        -2.436069         0.006583         1.416620
 H        -2.548148         1.829780        -1.761751
 H        -1.777015         3.469833        -1.378948
 H        -1.039206         0.752353        -2.003273
 H         0.436164         1.717057        -1.619159
 H        -1.154910         3.024108         2.865638
 H        -2.263449         1.444689         2.620879
 H        -0.038418         2.914864         0.897461
