19
Iteration:  1470charge 0 multiplicity 1
 O         0.406072        -0.206653         0.363093
 C        -0.584971         0.673140         0.159315
 C        -2.192798         0.437840         0.379315
 C        -2.159769         2.125272         0.288134
 C        -1.891714         2.450482        -1.119763
 C        -0.563195         1.371444        -1.177785
 O        -2.798510         2.956851         1.318107
 C        -1.723207         2.423298         2.268703
 C        -0.832648         1.988809         0.967749
 H         0.239605        -1.106420         0.041920
 H        -2.784466         0.047058        -0.438452
 H        -2.391909        -0.165148         1.312841
 H        -2.734159         2.316792        -1.850092
 H        -1.562065         3.433661        -1.363370
 H        -0.672273         0.551065        -1.883901
 H         0.415538         1.823600        -1.306232
 H        -1.433053         3.027402         3.013676
 H        -2.045429         1.476660         2.810223
 H         0.050047         2.608927         0.715875
