19
Iteration:  3627
 O         0.295399        -0.188567         0.399840
 C        -0.661534         0.702862         0.090369
 C        -2.270022         0.567275         0.160692
 C        -2.149886         2.125188         0.308125
 C        -1.663943         2.504830        -1.115304
 C        -0.623241         1.448536        -1.267483
 O        -2.734322         2.759664         1.406926
 C        -1.776113         2.233465         2.300318
 C        -0.771632         1.930370         1.118847
 H         0.998920         0.404048         0.712797
 H        -2.827098         0.210210        -0.675195
 H        -2.426046        -0.123947         0.933977
 H        -2.489992         2.562340        -1.941963
 H        -1.415286         3.539849        -1.006341
 H        -1.016212         0.721698        -2.057203
 H         0.287762         1.780641        -1.682964
 H        -1.418843         3.012256         3.009427
 H        -2.188361         1.449217         2.884901
 H        -0.065625         2.796869         0.908861
