19
Iteration:   182
 O         0.250569        -0.381076         0.255441
 C        -0.654830         0.747192         0.220623
 C        -2.066668         0.463117         0.539084
 C        -2.157128         2.124660         0.273388
 C        -1.893365         2.315794        -1.215525
 C        -0.656130         1.386987        -1.253787
 O        -2.842024         2.741723         1.364713
 C        -1.605694         2.621585         2.225855
 C        -0.783418         2.145209         1.017359
 H         1.129381         0.066699         0.340632
 H        -2.539139        -0.300306        -0.199325
 H        -2.229678         0.361175         1.596232
 H        -2.670403         1.833216        -1.910938
 H        -1.652008         3.306474        -1.586405
 H        -0.718326         0.538135        -2.095841
 H         0.266950         1.966449        -1.314967
 H        -1.241376         3.645328         2.587122
 H        -1.849886         1.955782         3.139394
 H         0.183544         2.841072         0.973116
