19
Iteration:   721charge 0 multiplicity 1
 O         0.416010        -0.244743         0.269514
 C        -0.672673         0.774954         0.282380
 C        -2.171470         0.460581         0.491170
 C        -2.105449         2.104603         0.336622
 C        -1.867826         2.351814        -1.185621
 C        -0.717276         1.289711        -1.274374
 O        -2.787548         2.836357         1.284099
 C        -1.661687         2.533488         2.215374
 C        -0.764516         2.081003         1.016533
 H         0.560421        -0.658072         1.123244
 H        -2.711270        -0.159778        -0.224963
 H        -2.417252         0.157066         1.498084
 H        -2.806126         2.106800        -1.756412
 H        -1.598393         3.386473        -1.449422
 H        -1.097505         0.622907        -2.096623
 H         0.230306         1.676696        -1.666502
 H        -1.459453         3.470151         2.681783
 H        -1.933810         1.718619         2.832185
 H         0.133241         2.710133         0.749113
