19
Iteration:  2420charge 0 multiplicity 1
 O         0.245545        -0.308927         0.317931
 C        -0.651126         0.686375         0.148057
 C        -2.191808         0.480714         0.384141
 C        -2.126936         2.066393         0.329370
 C        -1.910368         2.382105        -1.152251
 C        -0.584858         1.533836        -1.289989
 O        -2.800940         2.785502         1.361074
 C        -1.520656         2.470864         2.241836
 C        -0.807747         2.026648         1.000833
 H         0.402222        -0.188553         1.286188
 H        -2.859370        -0.208076        -0.169636
 H        -2.377763         0.397335         1.432471
 H        -2.782121         2.082285        -1.731099
 H        -1.691260         3.441184        -1.465256
 H        -0.789107         0.730748        -1.988759
 H         0.317508         2.144108        -1.473767
 H        -0.796623         3.258564         2.622120
 H        -1.632941         1.819492         3.115687
 H         0.033317         2.774870         0.694732
