19
Iteration:  1095charge 0 multiplicity 1
 O         0.443428        -0.110096         0.375111
 C        -0.749722         0.614730         0.206940
 C        -2.189477         0.421369         0.390347
 C        -2.102347         2.097203         0.269343
 C        -1.751340         2.512015        -1.065725
 C        -0.687244         1.325970        -1.315374
 O        -2.755403         2.858810         1.300283
 C        -1.747946         2.355420         2.179086
 C        -0.855649         2.010338         1.003085
 H         0.883203         0.007223         1.248334
 H        -2.725617        -0.094150        -0.385325
 H        -2.592770         0.292809         1.364845
 H        -2.570339         2.509204        -1.810147
 H        -1.382193         3.507626        -1.070115
 H        -1.130147         0.702982        -2.025039
 H         0.334635         1.658324        -1.508165
 H        -1.325576         3.025716         3.026528
 H        -2.194046         1.484209         2.685499
 H         0.121176         2.530937         0.785594
