19
Iteration:  2341charge 0 multiplicity 1
 O         0.309775        -0.241511         0.500882
 C        -0.646198         0.709550         0.212133
 C        -2.240313         0.539141         0.374055
 C        -2.126588         2.122175         0.309581
 C        -1.930192         2.459718        -1.183347
 C        -0.743368         1.411058        -1.297895
 O        -2.732915         2.828257         1.328135
 C        -1.561577         2.313519         2.189897
 C        -0.746889         1.990944         0.996263
 H         1.051428        -0.147854        -0.134910
 H        -2.778126        -0.004352        -0.356118
 H        -2.492453         0.164218         1.378212
 H        -2.793565         2.227604        -1.808758
 H        -1.606202         3.492829        -1.329236
 H        -0.766512         0.609978        -2.017805
 H         0.267360         1.901399        -1.390605
 H        -1.056252         3.171311         2.686603
 H        -1.732790         1.440117         2.766861
 H         0.034229         2.849401         0.877811
