19
Iteration:   369
 O         0.407338        -0.094809         0.535675
 C        -0.652918         0.722834         0.166359
 C        -2.212074         0.664153         0.435821
 C        -2.102628         2.120089         0.309388
 C        -1.933757         2.301971        -1.217171
 C        -0.840841         1.139400        -1.327783
 O        -2.851888         2.790975         1.357431
 C        -1.458390         2.470042         2.294883
 C        -0.703319         2.040299         0.907383
 H         0.829312        -0.541713        -0.198987
 H        -2.724629         0.284722        -0.409056
 H        -2.402475         0.259730         1.422878
 H        -2.776094         2.048620        -1.812280
 H        -1.569052         3.319384        -1.498691
 H        -1.146138         0.238454        -1.950180
 H         0.002383         1.620741        -1.809371
 H        -1.166368         3.386797         2.724497
 H        -1.735530         1.594718         2.915203
 H         0.068838         2.796825         0.649759
