19
Iteration:   692charge 0 multiplicity 1
 O         0.372239        -0.158866         0.485498
 C        -0.618549         0.798700         0.206347
 C        -2.135310         0.465602         0.382387
 C        -2.194116         2.107573         0.301130
 C        -1.870051         2.265346        -1.202296
 C        -0.674164         1.261297        -1.347966
 O        -2.752818         2.945502         1.471845
 C        -1.584456         2.386666         2.162982
 C        -0.851725         2.132084         0.882256
 H        -0.080627        -0.953295         0.833150
 H        -2.668007        -0.154469        -0.328201
 H        -2.350204         0.013246         1.365299
 H        -2.789878         1.968946        -1.831236
 H        -1.587482         3.254305        -1.473787
 H        -1.016056         0.448937        -2.073296
 H         0.311012         1.827621        -1.524203
 H        -1.149137         3.222925         2.881584
 H        -1.849987         1.509293         2.796067
 H        -0.163559         2.929452         0.561786
