19
Iteration:  2270
 O         0.399980        -0.309038         0.336519
 C        -0.666230         0.680279         0.220162
 C        -2.157269         0.476588         0.473219
 C        -2.115337         2.112181         0.284050
 C        -1.892572         2.465828        -1.127755
 C        -0.738854         1.400785        -1.248592
 O        -2.775314         2.824658         1.255674
 C        -1.656664         2.474248         2.245842
 C        -0.701008         2.047855         1.031968
 H         0.147643        -1.044138        -0.265350
 H        -2.807360        -0.004426        -0.347715
 H        -2.431307         0.250057         1.506728
 H        -2.811668         2.376586        -1.724642
 H        -1.519362         3.512739        -1.217022
 H        -0.856864         0.625173        -2.052713
 H         0.199068         1.925712        -1.293790
 H        -1.255845         3.274028         2.775925
 H        -2.017439         1.625552         2.817520
 H        -0.079219         2.961848         0.917163
