19
Iteration:  1235
 O         0.389852        -0.165415         0.318526
 C        -0.732444         0.685393         0.169894
 C        -2.216232         0.611901         0.436560
 C        -2.101516         2.129688         0.284341
 C        -1.771772         2.398719        -1.208058
 C        -0.603340         1.301652        -1.270249
 O        -2.869363         2.853009         1.354486
 C        -1.725880         2.248202         2.285689
 C        -0.704741         2.047824         0.964957
 H         0.382042        -0.137273         1.312244
 H        -2.756297        -0.069912        -0.294732
 H        -2.421056         0.323341         1.506866
 H        -2.614763         2.372802        -1.955928
 H        -1.334496         3.384447        -1.317542
 H        -0.831475         0.553951        -2.114510
 H         0.257858         1.939461        -1.443020
 H        -1.408924         2.972477         3.132069
 H        -1.980318         1.385137         2.773634
 H         0.070610         2.841832         0.805202
