19
Iteration:   484charge 0 multiplicity 1
 O         0.372248        -0.301097         0.283639
 C        -0.577423         0.700611         0.147991
 C        -2.175244         0.484870         0.475710
 C        -2.164657         1.997911         0.366640
 C        -1.883105         2.253719        -1.114861
 C        -0.762972         1.219517        -1.310990
 O        -2.789424         2.941984         1.308523
 C        -1.613478         2.598915         2.250595
 C        -0.748456         2.236901         1.017331
 H         0.681948        -0.228854         1.194557
 H        -2.739948        -0.203348        -0.229389
 H        -2.223887        -0.050000         1.430474
 H        -2.779896         2.335717        -1.898362
 H        -1.476978         3.240091        -1.155132
 H        -1.052181         0.375433        -1.971834
 H         0.130099         1.748482        -1.767769
 H        -1.311745         3.580679         2.809009
 H        -1.896558         1.683073         2.736926
 H        -0.130026         3.003411         0.521959
