19
Iteration:  1400charge 0 multiplicity 1
 O         0.302164        -0.205036         0.513732
 C        -0.666692         0.787349         0.189682
 C        -2.204401         0.541514         0.278524
 C        -2.178609         2.094791         0.314039
 C        -1.824187         2.349563        -1.207751
 C        -0.549253         1.423125        -1.259438
 O        -2.815144         2.716625         1.409971
 C        -1.601156         2.366150         2.220067
 C        -0.762484         2.105791         0.962140
 H        -0.185984        -1.006865         0.251737
 H        -2.733983         0.211623        -0.649406
 H        -2.709630         0.049498         1.099673
 H        -2.534095         2.453950        -2.011044
 H        -1.456681         3.467624        -1.223772
 H        -0.632557         0.579633        -1.968681
 H         0.329148         2.113048        -1.446583
 H        -1.158795         3.149809         2.960137
 H        -1.829320         1.546053         2.812546
 H        -0.017538         2.877386         0.576874
