19
Iteration:  3031charge 0 multiplicity 1
 O         0.363757        -0.290863         0.354845
 C        -0.737362         0.647342         0.182649
 C        -2.155902         0.405573         0.285896
 C        -2.133854         2.004286         0.297176
 C        -1.890277         2.529563        -1.140152
 C        -0.604556         1.551408        -1.182272
 O        -2.751690         2.844190         1.392518
 C        -1.669175         2.476181         2.221851
 C        -0.782691         2.026714         1.030357
 H         0.297991        -0.923172        -0.392197
 H        -2.812937        -0.131736        -0.413546
 H        -2.406737         0.102099         1.355170
 H        -2.548345         2.111107        -1.909649
 H        -1.737016         3.610061        -1.061064
 H        -0.746164         0.822571        -2.034115
 H         0.353946         1.993140        -1.178951
 H        -1.290620         3.322248         2.843396
 H        -1.900384         1.527554         2.769536
 H         0.104607         2.669680         0.859744
