19
Iteration:  3155
 O         0.222042        -0.411085         0.233134
 C        -0.566367         0.754775         0.241155
 C        -2.129775         0.534831         0.249849
 C        -2.068911         2.082915         0.318998
 C        -1.816124         2.467484        -1.092037
 C        -0.606681         1.442063        -1.215578
 O        -2.838047         2.815034         1.403106
 C        -1.805379         2.345057         2.242143
 C        -0.723636         2.135565         1.070207
 H         1.152113        -0.135292         0.192630
 H        -2.640088         0.094611        -0.646882
 H        -2.544314         0.049682         1.161960
 H        -2.662614         2.278792        -1.709402
 H        -1.689205         3.566069        -1.165387
 H        -0.810040         0.753035        -2.038721
 H         0.431979         1.865286        -1.429454
 H        -1.356111         3.104478         2.902215
 H        -2.076697         1.502946         2.975058
 H         0.067846         2.945802         0.939437
