19
Iteration:  1657
 O         0.294650        -0.137135         0.562272
 C        -0.681375         0.703265         0.179451
 C        -2.243801         0.519151         0.283236
 C        -2.080676         2.158501         0.261698
 C        -1.804081         2.504504        -1.225157
 C        -0.663847         1.418169        -1.285146
 O        -2.830859         2.671096         1.402892
 C        -1.560137         2.388896         2.222541
 C        -0.739218         2.014872         0.967814
 H         0.262018        -1.100053         0.337250
 H        -2.628527        -0.016694        -0.596475
 H        -2.655311         0.120064         1.198533
 H        -2.699053         2.100817        -1.851935
 H        -1.692634         3.518534        -1.442950
 H        -0.939516         0.525357        -1.950635
 H         0.331732         1.701617        -1.531907
 H        -1.275831         3.347236         2.497127
 H        -1.579691         1.788443         3.218270
 H         0.153468         2.635709         0.972198
