19
Iteration:  1072
 O         0.395023        -0.200079         0.343085
 C        -0.595540         0.784273         0.179010
 C        -2.267180         0.548018         0.329908
 C        -2.221361         2.028856         0.342573
 C        -1.721091         2.427464        -1.213371
 C        -0.641908         1.336471        -1.247033
 O        -2.861596         2.795894         1.388179
 C        -1.700668         2.306379         2.208811
 C        -0.761433         2.099275         1.030736
 H         0.631693        -0.461947         1.236341
 H        -2.762681         0.004377        -0.470198
 H        -2.581680         0.326301         1.338463
 H        -2.431145         2.476262        -2.086295
 H        -1.249399         3.355497        -1.241744
 H        -0.924526         0.478811        -1.836974
 H         0.290999         1.760514        -1.530617
 H        -1.185066         3.276495         2.659376
 H        -2.041469         1.682760         3.024327
 H         0.045715         2.844788         0.774194
