19
Iteration:  2023
 O         0.297931        -0.320855         0.241539
 C        -0.616866         0.750450         0.175646
 C        -2.141096         0.443165         0.367475
 C        -2.112492         2.130287         0.322515
 C        -1.867223         2.392547        -1.091150
 C        -0.677408         1.362207        -1.197909
 O        -2.816879         2.887486         1.296263
 C        -1.616085         2.478066         2.226218
 C        -0.754001         2.033390         1.044950
 H         0.434965        -0.358915         1.193661
 H        -2.549088         0.035692        -0.492199
 H        -2.604815         0.056989         1.289560
 H        -2.746030         2.118271        -1.713611
 H        -1.551989         3.393478        -1.255907
 H        -0.926730         0.545542        -1.898019
 H         0.287576         1.757154        -1.472446
 H        -1.192891         3.337861         2.751905
 H        -2.041590         1.876693         3.042656
 H         0.036703         2.736801         0.905056
