19
Iteration:   749charge 0 multiplicity 1
 O         0.321987        -0.342871         0.282966
 C        -0.626038         0.752205         0.184199
 C        -2.122950         0.578548         0.471275
 C        -2.139843         2.051046         0.345637
 C        -1.950186         2.334486        -1.187356
 C        -0.649699         1.310936        -1.235234
 O        -2.832246         2.771924         1.273114
 C        -1.654835         2.614511         2.232298
 C        -0.727003         2.027467         1.053842
 H         1.130798        -0.047206         0.725246
 H        -2.848312         0.039680        -0.205048
 H        -2.161727         0.293062         1.549711
 H        -2.769217         2.277398        -1.871547
 H        -1.493037         3.363767        -1.199029
 H        -0.732358         0.610482        -2.021695
 H         0.257519         1.857024        -1.516386
 H        -1.431943         3.676088         2.429406
 H        -1.987237         1.983872         3.143249
 H         0.061109         2.686790         0.825040
