19
Iteration:  3347charge 0 multiplicity 1
 O         0.168576        -0.271257         0.372844
 C        -0.667587         0.807489         0.158786
 C        -2.130093         0.498032         0.234058
 C        -2.092033         2.164083         0.269913
 C        -1.697813         2.568772        -1.171834
 C        -0.607725         1.421159        -1.196719
 O        -2.791635         2.729262         1.448374
 C        -1.747842         2.182838         2.241397
 C        -0.796652         2.087701         1.037311
 H         1.086656        -0.159902         0.065592
 H        -2.487834         0.009037        -0.709506
 H        -2.508964         0.349886         1.173532
 H        -2.535916         2.298164        -1.849554
 H        -1.319128         3.582522        -1.161348
 H        -0.884121         0.629976        -1.948606
 H         0.372170         1.838983        -1.437289
 H        -1.359373         2.843308         3.065784
 H        -2.031839         1.283599         2.801811
 H        -0.074264         2.880441         1.126403
