19
Iteration:  3225charge 0 multiplicity 1
 O         0.377503        -0.174873         0.471669
 C        -0.666790         0.737510         0.109702
 C        -2.243400         0.463392         0.141593
 C        -2.100089         2.066984         0.287211
 C        -1.806579         2.586513        -1.012368
 C        -0.633911         1.451980        -1.253915
 O        -2.722827         2.807264         1.336416
 C        -1.653142         2.280036         2.303628
 C        -0.827879         1.958677         1.041934
 H        -0.160982        -0.979207         0.323941
 H        -2.718158         0.204877        -0.809410
 H        -2.682963        -0.062795         0.999920
 H        -2.567526         2.269931        -1.833966
 H        -1.605929         3.641716        -1.108245
 H        -0.942749         0.675819        -2.008867
 H         0.331408         1.864852        -1.566339
 H        -1.262479         3.097542         3.006353
 H        -2.093681         1.523211         2.983860
 H        -0.159744         2.756267         0.813343
