19
Iteration:   610
 O         0.379745        -0.237555         0.312872
 C        -0.629900         0.710099         0.228442
 C        -2.144321         0.514190         0.582013
 C        -2.219323         2.099182         0.321228
 C        -1.856069         2.256354        -1.148040
 C        -0.678137         1.250325        -1.226201
 O        -2.840091         2.925746         1.322816
 C        -1.614175         2.542965         2.173929
 C        -0.809905         2.052636         0.959301
 H         0.778579        -0.116314        -0.584186
 H        -2.570594        -0.033137        -0.253603
 H        -2.432983         0.103138         1.555841
 H        -2.583888         2.178236        -1.875973
 H        -1.313285         3.259121        -1.285715
 H        -0.822997         0.487972        -1.948985
 H         0.297260         1.619140        -1.439458
 H        -1.178814         3.361997         2.537171
 H        -1.940232         1.919704         2.979402
 H        -0.031238         2.748695         0.600874
