19
Iteration:   207
 O         0.392426        -0.279071         0.223109
 C        -0.596494         0.761710         0.213857
 C        -2.193653         0.538289         0.336435
 C        -2.140229         2.041188         0.371639
 C        -2.017104         2.194457        -1.084238
 C        -0.658734         1.259953        -1.222174
 O        -2.738791         2.953801         1.309006
 C        -1.672600         2.542043         2.253326
 C        -0.752944         2.106821         1.049893
 H         1.039705         0.058413         0.891183
 H        -2.627056         0.207924        -0.530353
 H        -2.353029         0.035159         1.297896
 H        -2.876222         1.869740        -1.649380
 H        -1.723655         3.237427        -1.465841
 H        -0.717883         0.267686        -1.788625
 H         0.187613         1.828684        -1.586378
 H        -1.319166         3.363208         2.850203
 H        -2.060384         1.703152         2.857798
 H        -0.204957         2.947873         0.718463
