19
Iteration:  1380
 O         0.326639        -0.124894         0.535385
 C        -0.665109         0.701797         0.163735
 C        -2.149801         0.460684         0.312128
 C        -2.158204         2.080031         0.224991
 C        -1.843370         2.525607        -1.168411
 C        -0.658815         1.413618        -1.227173
 O        -2.714598         2.871437         1.351524
 C        -1.677517         2.281139         2.224863
 C        -0.795005         1.960524         0.971946
 H         0.205625        -0.977973         0.115729
 H        -2.612879        -0.236303        -0.384916
 H        -2.448313         0.133618         1.303599
 H        -2.553400         2.063277        -1.796897
 H        -1.700466         3.551890        -1.645059
 H        -0.826775         0.805817        -2.065711
 H         0.343476         1.974645        -1.330157
 H        -1.415114         3.094923         2.885513
 H        -2.018459         1.449925         2.834714
 H         0.031309         2.770496         1.011331
