19
Iteration:   977charge 0 multiplicity 1
 O         0.464127        -0.105628         0.408773
 C        -0.632052         0.739766         0.254401
 C        -2.177701         0.518330         0.285530
 C        -2.129344         2.134823         0.282656
 C        -1.823474         2.438912        -1.135991
 C        -0.699970         1.226816        -1.270917
 O        -2.899678         2.856249         1.355600
 C        -1.687535         2.373078         2.215168
 C        -0.709720         1.967022         1.092708
 H         0.472271        -0.825219        -0.226537
 H        -2.691503         0.165417        -0.601444
 H        -2.651811         0.246724         1.196596
 H        -2.636268         2.180927        -1.833005
 H        -1.561967         3.501608        -1.465641
 H        -1.185906         0.448964        -1.808035
 H         0.388443         1.563816        -1.516234
 H        -1.284894         3.156320         2.826968
 H        -2.160123         1.646988         2.871712
 H         0.023298         2.773793         0.789691
