19
Iteration:  1432
 O         0.262546        -0.290170         0.446238
 C        -0.615682         0.764605         0.204161
 C        -2.060519         0.525422         0.347018
 C        -2.103719         2.140548         0.289608
 C        -1.886209         2.506572        -1.257959
 C        -0.564064         1.413747        -1.276753
 O        -2.879680         2.630392         1.391517
 C        -1.664241         2.487811         2.249198
 C        -0.742925         2.037103         1.024522
 H        -0.274107        -1.046205         0.192572
 H        -2.702982         0.002318        -0.418272
 H        -2.408642         0.225552         1.315493
 H        -2.621892         2.378550        -2.056043
 H        -1.405753         3.556995        -1.251165
 H        -0.747363         0.525360        -1.939030
 H         0.285404         1.968047        -1.720886
 H        -1.315646         3.553326         2.630832
 H        -1.984381         1.812216         2.983881
 H         0.118635         2.712874         1.044922
