19
Iteration:  3438charge 0 multiplicity 1
 O         0.169847        -0.439686         0.296051
 C        -0.654764         0.728822         0.100619
 C        -2.125201         0.534986         0.228550
 C        -2.127967         2.096775         0.307375
 C        -1.766881         2.487382        -1.169563
 C        -0.458931         1.646205        -1.231475
 O        -2.884506         2.689232         1.426684
 C        -1.704979         2.380785         2.313324
 C        -0.794530         2.038582         1.105764
 H         1.062292        -0.094304         0.459986
 H        -2.711207         0.184882        -0.530163
 H        -2.290579         0.248963         1.273093
 H        -2.530272         2.040401        -1.816546
 H        -1.660934         3.599253        -1.444373
 H        -0.609612         0.904004        -1.922515
 H         0.570703         2.057076        -1.232763
 H        -1.298839         3.185018         2.860284
 H        -2.063581         1.722754         3.086569
 H        -0.025544         2.830776         0.983165
