19
Iteration:  1534
 O         0.248159        -0.312304         0.578793
 C        -0.603947         0.780101         0.194654
 C        -2.154778         0.513704         0.352166
 C        -2.138816         2.045406         0.226714
 C        -1.794521         2.506183        -1.203143
 C        -0.610845         1.419343        -1.311543
 O        -2.819121         2.725173         1.411370
 C        -1.621564         2.416575         2.226830
 C        -0.828754         2.104520         0.936045
 H         0.611400        -0.662733        -0.275623
 H        -2.615963        -0.111523        -0.384819
 H        -2.421618         0.296511         1.411986
 H        -2.709675         2.308763        -1.809190
 H        -1.448630         3.584346        -1.283914
 H        -1.029913         0.648215        -1.933726
 H         0.268478         1.866308        -1.848554
 H        -1.285178         3.252085         2.887268
 H        -1.620415         1.471384         2.839743
 H        -0.157420         2.954712         0.643513
