19
Iteration:  3468
 O         0.165670        -0.345523         0.354087
 C        -0.675930         0.791304         0.202448
 C        -2.069074         0.609770         0.224227
 C        -2.026959         2.155215         0.268685
 C        -1.798668         2.536572        -1.120680
 C        -0.639933         1.500243        -1.209099
 O        -2.860067         2.659988         1.355700
 C        -1.727777         2.228415         2.231455
 C        -0.686572         2.086867         1.103369
 H         1.087933        -0.048118         0.508013
 H        -2.662635         0.181611        -0.694434
 H        -2.511024         0.133707         1.162669
 H        -2.730482         2.371243        -1.696946
 H        -1.346295         3.526980        -1.434286
 H        -0.736354         0.564310        -1.819254
 H         0.411147         1.867126        -1.477996
 H        -1.418125         2.940871         3.051249
 H        -2.089524         1.264557         2.700353
 H         0.016764         2.907423         1.077038
