19
Iteration:   726
 O         0.410837        -0.269307         0.252804
 C        -0.699724         0.747960         0.276117
 C        -2.168602         0.446436         0.521472
 C        -2.048169         2.115154         0.311416
 C        -1.847717         2.384743        -1.167289
 C        -0.746773         1.311183        -1.255522
 O        -2.824823         2.820496         1.287935
 C        -1.702013         2.550301         2.174040
 C        -0.726951         2.070917         1.023803
 H         0.702042        -0.496225         1.185244
 H        -2.622138        -0.156760        -0.282511
 H        -2.403124         0.238671         1.591165
 H        -2.797900         1.978578        -1.610346
 H        -1.616647         3.377895        -1.586347
 H        -1.059332         0.727594        -2.121662
 H         0.215603         1.714073        -1.690375
 H        -1.328433         3.553124         2.616525
 H        -1.905994         1.712753         2.945976
 H         0.140270         2.659067         0.823918
