19
Iteration:  4576charge 0 multiplicity 1
 O         0.267496        -0.273364         0.368061
 C        -0.643097         0.747523         0.158181
 C        -2.134650         0.519622         0.207004
 C        -2.089174         2.139249         0.257174
 C        -1.786692         2.480625        -1.150302
 C        -0.519375         1.531379        -1.230478
 O        -2.897325         2.732015         1.463679
 C        -1.714694         2.295433         2.282231
 C        -0.755982         1.996076         1.055280
 H        -0.262241        -1.101525         0.394476
 H        -2.668625        -0.041976        -0.523952
 H        -2.575686         0.251431         1.181036
 H        -2.461499         2.493694        -2.003888
 H        -1.411600         3.461427        -1.226066
 H        -0.488896         0.902305        -2.144386
 H         0.412307         2.094385        -1.220109
 H        -1.333934         3.287959         2.628704
 H        -1.862605         1.525053         2.977371
 H        -0.127292         2.913324         0.823002
