19
Iteration:  1995charge 0 multiplicity 1
 O         0.385213        -0.240257         0.158438
 C        -0.609229         0.729707         0.179416
 C        -2.214188         0.607098         0.542206
 C        -2.069517         2.092182         0.268640
 C        -1.856709         2.296633        -1.198973
 C        -0.681629         1.341123        -1.248750
 O        -2.700124         2.926401         1.305961
 C        -1.769534         2.402766         2.286835
 C        -0.758206         1.982200         1.082345
 H         0.163819        -0.684025         0.979093
 H        -2.942529        -0.067512        -0.051505
 H        -2.707410         0.608348         1.537870
 H        -2.781977         2.099225        -1.779946
 H        -1.542404         3.327858        -1.503230
 H        -0.695886         0.584158        -2.036879
 H         0.294930         1.876849        -1.379240
 H        -1.546042         3.071672         3.144196
 H        -2.277477         1.624744         2.908651
 H         0.013810         2.810383         0.934472
