19
Iteration:   455charge 0 multiplicity 1
 O         0.395118        -0.232317         0.214832
 C        -0.644116         0.746451         0.266974
 C        -2.162372         0.501633         0.628396
 C        -2.086403         2.165772         0.251504
 C        -1.954032         2.275980        -1.245664
 C        -0.753674         1.290224        -1.205996
 O        -2.784450         2.875395         1.261112
 C        -1.610720         2.482767         2.218210
 C        -0.732903         2.107350         1.033286
 H         0.132975        -1.063393         0.651843
 H        -2.568159        -0.443851         0.079191
 H        -2.285566         0.404278         1.740678
 H        -2.846015         1.924622        -1.766727
 H        -1.576865         3.264552        -1.589749
 H        -0.811388         0.390457        -1.852736
 H         0.032099         1.963827        -1.428145
 H        -1.222176         3.401798         2.524061
 H        -1.985612         1.900241         3.102950
 H         0.114584         2.781108         0.691909
