19
Iteration:  4599charge 0 multiplicity 1
 O         0.296288        -0.276948         0.483212
 C        -0.700513         0.863633         0.205241
 C        -2.239841         0.597471         0.113454
 C        -2.121661         2.157145         0.299231
 C        -1.782179         2.462383        -1.251849
 C        -0.505308         1.537188        -1.227286
 O        -2.826886         2.625524         1.460996
 C        -1.607860         2.279741         2.318754
 C        -0.773631         2.035385         1.058902
 H        -0.174648        -1.078034         0.179853
 H        -2.715492         0.323903        -0.776646
 H        -2.869382         0.082478         0.900911
 H        -2.612934         2.107017        -1.846507
 H        -1.691162         3.414552        -1.676349
 H        -0.631986         0.876520        -2.060952
 H         0.573729         1.864508        -1.214397
 H        -1.352724         3.134332         2.978610
 H        -1.792855         1.322350         2.655629
 H        -0.047119         2.827965         0.707251
