19
Iteration:  4306
 O         0.271549        -0.372554         0.389930
 C        -0.665239         0.731828         0.125441
 C        -2.136648         0.513276         0.212228
 C        -2.144993         2.062759         0.275158
 C        -1.781481         2.620900        -1.089661
 C        -0.600584         1.494872        -1.238270
 O        -2.813581         2.788076         1.433716
 C        -1.722194         2.314966         2.235696
 C        -0.759839         2.011173         1.003171
 H         0.746149        -0.417209         1.237242
 H        -2.540872         0.019970        -0.712633
 H        -2.678990         0.128231         1.060555
 H        -2.481123         2.483861        -1.957823
 H        -1.133686         3.626189        -1.176804
 H        -0.807814         0.884181        -2.084990
 H         0.395578         1.908556        -1.434959
 H        -1.564534         3.058382         3.043192
 H        -2.066275         1.499271         2.924409
 H        -0.048402         2.804207         0.775748
