19
Iteration:   370charge 0 multiplicity 1
 O         0.406763        -0.096469         0.543246
 C        -0.653542         0.730028         0.168503
 C        -2.214276         0.666373         0.437381
 C        -2.102458         2.120262         0.307790
 C        -1.930935         2.301434        -1.209566
 C        -0.845624         1.140919        -1.328110
 O        -2.850723         2.781983         1.354550
 C        -1.449229         2.462391         2.281501
 C        -0.713654         2.046546         0.904184
 H         0.838793        -0.538972        -0.190112
 H        -2.759972         0.304681        -0.359841
 H        -2.394940         0.267475         1.423625
 H        -2.759320         2.076000        -1.806077
 H        -1.558511         3.333987        -1.510378
 H        -1.128632         0.266365        -1.973012
 H         0.025190         1.616553        -1.812324
 H        -1.161480         3.390576         2.716513
 H        -1.710855         1.584901         2.915402
 H         0.049611         2.766607         0.641292
