19
Iteration:   952charge 0 multiplicity 1
 O         0.380040        -0.128840         0.548194
 C        -0.648022         0.764129         0.229767
 C        -2.178386         0.562926         0.425942
 C        -2.082030         2.116764         0.229056
 C        -1.820198         2.450961        -1.213636
 C        -0.773841         1.309036        -1.396189
 O        -2.748658         2.741311         1.338339
 C        -1.731053         2.291510         2.247119
 C        -0.750729         2.035514         1.013404
 H         0.936715        -0.338276        -0.215130
 H        -2.785772         0.070691        -0.321641
 H        -2.521790         0.274240         1.422071
 H        -2.681000         2.492162        -1.974401
 H        -1.305327         3.368218        -1.401284
 H        -1.109454         0.449856        -1.993728
 H         0.173709         1.738822        -1.659733
 H        -1.473377         3.068627         3.089506
 H        -2.111420         1.434053         2.824543
 H         0.009922         2.919844         0.766109
