19
Iteration:  2148
 O         0.381875        -0.268796         0.164622
 C        -0.728169         0.631785         0.267586
 C        -2.208437         0.545918         0.457028
 C        -2.079048         2.110845         0.331092
 C        -1.852248         2.387528        -1.111633
 C        -0.658076         1.386793        -1.191606
 O        -2.803323         2.791241         1.295589
 C        -1.625019         2.502178         2.175080
 C        -0.795920         2.034983         1.044051
 H         0.620191        -0.424561         1.106524
 H        -2.973761         0.048213        -0.299938
 H        -2.666616         0.264106         1.438377
 H        -2.602469         2.228448        -1.892156
 H        -1.532379         3.484819        -1.264641
 H        -0.625258         0.694365        -2.032186
 H         0.331541         1.906891        -1.332533
 H        -1.219161         3.483875         2.590084
 H        -1.943688         1.748088         2.849097
 H         0.137431         2.648507         0.943828
