19
Iteration:   489charge 0 multiplicity 1
 O         0.379955        -0.314973         0.329583
 C        -0.540896         0.716360         0.138911
 C        -2.212459         0.478278         0.430739
 C        -2.136185         2.041910         0.378461
 C        -1.921914         2.266236        -1.106877
 C        -0.771218         1.222851        -1.335953
 O        -2.788812         2.904920         1.309488
 C        -1.612723         2.623075         2.257832
 C        -0.739166         2.185544         0.992491
 H         0.681210        -0.028161         1.226180
 H        -2.679777        -0.206769        -0.300018
 H        -2.399087        -0.014497         1.418518
 H        -2.796843         2.332312        -1.667805
 H        -1.400838         3.265275        -1.271563
 H        -0.995537         0.401892        -2.023616
 H         0.054872         1.714118        -1.794018
 H        -1.233172         3.475810         2.690392
 H        -1.859294         1.788145         2.981072
 H        -0.192815         3.066917         0.582001
