19
Iteration:  3731charge 0 multiplicity 1
 O         0.288634        -0.374684         0.306653
 C        -0.674324         0.694838         0.187195
 C        -2.132427         0.538377         0.316718
 C        -2.114778         2.134008         0.314681
 C        -1.737827         2.579145        -1.117656
 C        -0.600204         1.475435        -1.195252
 O        -2.872323         2.746249         1.312209
 C        -1.761312         2.293720         2.286590
 C        -0.767198         2.062999         1.060070
 H         0.921360        -0.076192        -0.379929
 H        -2.698773        -0.077247        -0.508056
 H        -2.588995         0.192499         1.293409
 H        -2.507761         2.537051        -1.793589
 H        -1.222285         3.568105        -1.010182
 H        -0.636887         0.896526        -2.067715
 H         0.386756         2.082923        -1.152196
 H        -1.451513         3.155421         2.860279
 H        -2.057084         1.335192         2.812881
 H         0.063479         2.736530         0.954245
