19
Iteration:  4619charge 0 multiplicity 1
 O         0.215457        -0.205292         0.534115
 C        -0.651220         0.791316         0.121541
 C        -2.168874         0.605880         0.215697
 C        -2.108374         2.132304         0.256336
 C        -1.792964         2.524521        -1.141783
 C        -0.557097         1.465820        -1.242862
 O        -2.796244         2.681499         1.416732
 C        -1.676767         2.173776         2.232461
 C        -0.773527         2.061623         0.991092
 H         0.320199        -1.080481         0.098727
 H        -2.651796         0.117152        -0.606734
 H        -2.550415         0.070306         1.087278
 H        -2.679837         2.359814        -1.829163
 H        -1.459142         3.545243        -1.155922
 H        -0.583900         0.799605        -2.130448
 H         0.260800         2.121293        -1.355252
 H        -1.331058         3.057509         2.864603
 H        -2.046277         1.291884         2.741199
 H         0.177655         2.684887         1.028249
