19
Iteration:  4497charge 0 multiplicity 1
 O         0.301129        -0.238103         0.345308
 C        -0.673624         0.729100         0.188816
 C        -2.268004         0.622140         0.258474
 C        -2.112837         2.165709         0.239459
 C        -1.785478         2.514287        -1.153190
 C        -0.560509         1.493730        -1.244963
 O        -2.755870         2.739643         1.398689
 C        -1.716715         2.220784         2.258624
 C        -0.795708         1.959630         1.057412
 H         0.536226        -0.515685         1.254507
 H        -2.661108         0.122209        -0.662487
 H        -2.629334         0.134366         1.117134
 H        -2.480145         2.017163        -1.863572
 H        -1.374680         3.497815        -1.384041
 H        -0.511357         0.660374        -2.007376
 H         0.231641         2.184249        -1.232704
 H        -1.369593         2.946427         3.035449
 H        -2.040339         1.313487         2.791781
 H        -0.052659         2.798836         0.925906
