19
Iteration:   445
 O         0.422800        -0.231373         0.298247
 C        -0.708566         0.720353         0.252543
 C        -2.137084         0.536640         0.536436
 C        -2.079361         2.122676         0.284032
 C        -2.020750         2.230530        -1.248414
 C        -0.767461         1.329849        -1.243749
 O        -2.779163         2.832926         1.260115
 C        -1.575067         2.571024         2.230076
 C        -0.671705         2.078734         1.052123
 H         0.052146        -1.129383         0.473576
 H        -2.878167        -0.013450        -0.112215
 H        -2.382549         0.372293         1.608818
 H        -2.866508         1.899747        -1.807057
 H        -1.795081         3.273263        -1.617381
 H        -0.688567         0.529562        -2.009024
 H         0.138208         1.887246        -1.436703
 H        -1.305879         3.485068         2.657055
 H        -1.815564         1.848580         3.086474
 H         0.190487         2.795939         0.998426
