19
Iteration:   432charge 0 multiplicity 1
 O         0.370907        -0.214637         0.431907
 C        -0.592652         0.708770         0.167854
 C        -2.189143         0.569518         0.431825
 C        -2.101941         2.065948         0.347801
 C        -2.036873         2.237802        -1.153109
 C        -0.683260         1.330165        -1.305553
 O        -2.742286         2.836367         1.377968
 C        -1.627033         2.632248         2.171056
 C        -0.667823         2.052660         0.960621
 H         0.000107        -1.098564         0.325326
 H        -2.768859         0.116503        -0.508294
 H        -2.517954         0.111819         1.401743
 H        -2.871466         1.586306        -1.586052
 H        -2.021130         3.248298        -1.513102
 H        -0.920701         0.542493        -2.049456
 H         0.220864         1.900735        -1.464295
 H        -1.249825         3.532906         2.655784
 H        -1.866590         1.868306         2.954540
 H         0.152356         2.732746         0.523693
