19
Iteration:  4240
 O         0.343229        -0.361149         0.204092
 C        -0.597297         0.757364         0.221780
 C        -2.167270         0.585303         0.267205
 C        -2.214396         2.128966         0.351711
 C        -1.732454         2.454241        -1.149961
 C        -0.563467         1.476464        -1.205364
 O        -2.870328         2.831101         1.356226
 C        -1.737553         2.271882         2.297507
 C        -0.736401         2.092803         1.101784
 H        -0.170560        -1.000525         0.728179
 H        -2.821748         0.190204        -0.575393
 H        -2.647232         0.088339         1.087350
 H        -2.441442         2.096461        -1.976614
 H        -1.399105         3.576752        -1.271004
 H        -0.647810         0.648001        -1.872806
 H         0.374159         2.002513        -1.208527
 H        -1.372278         3.073259         3.018909
 H        -1.987445         1.330883         2.774260
 H        -0.044023         2.920221         0.848996
