19
Iteration:  1779
 O         0.234536        -0.272319         0.523081
 C        -0.676886         0.743710         0.098888
 C        -2.202317         0.475720         0.342456
 C        -2.174887         2.069769         0.300986
 C        -1.816723         2.463902        -1.106528
 C        -0.637350         1.366332        -1.270851
 O        -2.794899         2.765080         1.317598
 C        -1.560034         2.427468         2.224692
 C        -0.737902         2.151343         1.020919
 H         0.973795        -0.539806        -0.057303
 H        -2.709048        -0.185893        -0.392209
 H        -2.395903         0.102018         1.390985
 H        -2.595078         2.194838        -1.851113
 H        -1.434641         3.510341        -1.214716
 H        -0.981679         0.704709        -2.100424
 H         0.306250         1.879375        -1.541998
 H        -1.426512         3.417430         2.694968
 H        -1.748600         1.490287         2.827387
 H         0.064286         2.810320         0.613700
