19
Iteration:  3425
 O         0.211109        -0.421311         0.278049
 C        -0.619686         0.722641         0.118833
 C        -2.156174         0.494666         0.214853
 C        -2.177811         2.096710         0.367653
 C        -1.755093         2.505931        -1.078985
 C        -0.471492         1.549483        -1.140310
 O        -2.865670         2.799802         1.434064
 C        -1.708613         2.402889         2.245446
 C        -0.846942         1.990443         1.005771
 H         1.154806        -0.145326         0.264919
 H        -2.696064        -0.190655        -0.518039
 H        -2.380995        -0.145312         1.114089
 H        -2.527563         2.241691        -1.831585
 H        -1.495673         3.627910        -1.179259
 H        -0.210685         1.130636        -2.097280
 H         0.353229         2.329807        -1.062908
 H        -1.413982         3.308808         2.787812
 H        -1.864725         1.460765         2.799230
 H        -0.207789         2.810305         0.670973
