19
Iteration:   472
 O         0.360985        -0.255826         0.195088
 C        -0.675482         0.733911         0.209652
 C        -2.045579         0.446863         0.603753
 C        -2.179004         2.040850         0.332231
 C        -1.868727         2.296456        -1.146815
 C        -0.721873         1.230553        -1.240492
 O        -2.772480         2.962351         1.323501
 C        -1.665543         2.563241         2.155235
 C        -0.776959         2.159651         0.947611
 H         0.497888        -0.706073         1.059227
 H        -2.730362        -0.047719        -0.071964
 H        -2.176298         0.221513         1.648906
 H        -2.627018         1.959706        -1.952379
 H        -1.582102         3.344544        -1.249520
 H        -1.041036         0.380828        -1.860119
 H         0.332833         1.518599        -1.594954
 H        -1.424009         3.309541         3.033328
 H        -1.917190         1.731363         2.828502
 H        -0.128716         2.979760         0.654571
