19
Iteration:  1271charge 0 multiplicity 1
 O         0.200591        -0.337207         0.458258
 C        -0.640816         0.728824         0.184907
 C        -2.124994         0.478242         0.216432
 C        -2.111863         2.043659         0.296835
 C        -1.906727         2.405622        -1.228935
 C        -0.648703         1.504496        -1.242627
 O        -2.768203         2.767686         1.373489
 C        -1.683126         2.494963         2.300374
 C        -0.704842         2.072816         1.044602
 H         1.049998         0.149561         0.622289
 H        -2.232837        -0.189798        -0.669047
 H        -2.531049        -0.022632         1.088858
 H        -2.707703         2.208428        -1.883328
 H        -1.594214         3.482877        -1.184363
 H        -0.665997         0.732010        -1.953957
 H         0.410671         1.966766        -1.465154
 H        -1.400997         3.314378         2.980568
 H        -2.078718         1.566080         2.798025
 H         0.097168         2.802600         0.641559
