19
Iteration:  2073charge 0 multiplicity 1
 O         0.233478        -0.171334         0.455999
 C        -0.707273         0.772681         0.210758
 C        -2.189483         0.655653         0.323846
 C        -2.120296         2.117341         0.254626
 C        -1.846006         2.387641        -1.210578
 C        -0.682039         1.369603        -1.260279
 O        -2.777169         2.664938         1.424111
 C        -1.518193         2.354020         2.161543
 C        -0.725474         2.040893         0.947960
 H         0.003585        -0.740926         1.196165
 H        -2.702557        -0.121136        -0.395262
 H        -2.168362         0.346673         1.394953
 H        -2.762807         2.153219        -1.743437
 H        -1.438373         3.456620        -1.335786
 H        -0.850039         0.619233        -2.055994
 H         0.340354         1.854041        -1.344353
 H        -1.197183         3.322119         2.559738
 H        -1.710578         1.652780         3.014174
 H         0.067611         2.832509         0.630072
