19
Iteration:  1346
 O         0.380605        -0.219551         0.397920
 C        -0.540465         0.763869         0.188083
 C        -2.183375         0.567220         0.319916
 C        -2.209368         2.091087         0.323207
 C        -1.821364         2.437373        -1.146084
 C        -0.650961         1.272045        -1.246710
 O        -2.803524         2.883835         1.310196
 C        -1.787109         2.341111         2.228829
 C        -0.730865         2.018643         1.152131
 H         0.577173        -0.546010        -0.485128
 H        -2.616478         0.145834        -0.608880
 H        -2.578395         0.219134         1.261921
 H        -2.596231         2.103565        -1.811344
 H        -1.521808         3.514869        -1.387054
 H        -0.904039         0.535567        -2.016217
 H         0.271342         1.836867        -1.623569
 H        -1.447836         3.138717         2.954202
 H        -2.101040         1.503550         2.766476
 H         0.187527         2.674253         0.934895
