19
Iteration:    29charge 0 multiplicity 1
 O         0.256771        -0.277438         0.277327
 C        -0.655828         0.717610         0.219354
 C        -2.207219         0.462712         0.398482
 C        -2.171172         1.964277         0.252492
 C        -1.807873         2.410939        -1.175764
 C        -0.569860         1.471136        -1.156295
 O        -2.881246         2.568044         1.469056
 C        -1.573309         2.718836         2.107886
 C        -0.726669         2.083138         0.999929
 H         0.634514        -0.321035         1.169412
 H        -2.771498        -0.136337        -0.360111
 H        -2.494097         0.374079         1.447258
 H        -2.693812         2.148545        -1.860398
 H        -1.630472         3.481495        -1.315381
 H        -0.553456         0.703701        -2.027836
 H         0.346696         2.089589        -1.227190
 H        -1.234303         3.819798         2.017171
 H        -1.688244         2.033636         2.960055
 H         0.033086         2.845108         0.639808
