19
Iteration:  1076charge 0 multiplicity 1
 O         0.425530        -0.192260         0.347122
 C        -0.601138         0.776622         0.162340
 C        -2.304725         0.542730         0.356032
 C        -2.228673         2.018506         0.331822
 C        -1.718842         2.465130        -1.211452
 C        -0.682201         1.329345        -1.211669
 O        -2.839703         2.810984         1.325412
 C        -1.674730         2.294845         2.242791
 C        -0.771655         2.066277         1.023946
 H         0.688350        -0.316785         1.287378
 H        -2.809136        -0.044454        -0.401441
 H        -2.528393         0.252831         1.380851
 H        -2.409472         2.546803        -2.035752
 H        -1.152600         3.482286        -1.162897
 H        -0.908928         0.482397        -1.844988
 H         0.343819         1.749721        -1.555409
 H        -1.284635         3.185078         2.636378
 H        -2.022909         1.571618         3.029114
 H        -0.088135         2.914946         0.713089
