19
Iteration:    13
 O         0.323508        -0.238730         0.296173
 C        -0.718403         0.792887         0.283799
 C        -2.130982         0.441391         0.444633
 C        -2.263605         2.057302         0.234840
 C        -1.889189         2.418048        -1.299190
 C        -0.646482         1.417016        -1.204414
 O        -2.829100         2.673979         1.383901
 C        -1.556810         2.537603         2.198526
 C        -0.713987         2.066823         1.022780
 H         0.512441        -0.490641         1.239747
 H        -2.448165        -0.297267        -0.282771
 H        -2.462052         0.143324         1.460037
 H        -2.445977         2.185851        -2.161613
 H        -1.525652         3.459728        -1.347614
 H        -0.662967         0.692435        -1.960297
 H         0.344838         1.998979        -1.267957
 H        -1.346431         3.521455         2.450228
 H        -1.641860         1.986185         3.158827
 H         0.210083         2.705328         0.790990
