19
Iteration:   646charge 0 multiplicity 1
 O         0.295982        -0.229436         0.600137
 C        -0.667723         0.769060         0.180437
 C        -2.125241         0.539954         0.406940
 C        -2.127313         2.089230         0.338415
 C        -1.973059         2.312147        -1.168128
 C        -0.661990         1.335638        -1.319175
 O        -2.829672         2.746038         1.373818
 C        -1.531588         2.529022         2.133462
 C        -0.689409         2.106009         0.900051
 H         0.516629        -0.893310        -0.100575
 H        -2.617176         0.064434        -0.413100
 H        -2.482421         0.135509         1.322188
 H        -2.825784         1.958691        -1.831087
 H        -1.765961         3.322102        -1.418602
 H        -0.926379         0.484774        -2.004068
 H         0.145380         1.988151        -1.708348
 H        -1.159586         3.501486         2.561622
 H        -1.696833         1.792441         2.898079
 H         0.086808         2.855676         0.598724
