19
Iteration:  4782
 O         0.388030        -0.155607         0.284754
 C        -0.653079         0.766165         0.164334
 C        -2.242329         0.556267         0.252648
 C        -2.136137         2.155207         0.262425
 C        -1.624481         2.555803        -1.153109
 C        -0.582591         1.360458        -1.221293
 O        -2.860275         2.722129         1.383730
 C        -1.815209         2.219100         2.278205
 C        -0.794402         2.020122         1.168857
 H        -0.081095        -0.947254         0.543987
 H        -2.873667         0.114889        -0.466466
 H        -2.795788         0.214609         1.174979
 H        -2.130568         2.569637        -2.131119
 H        -1.065754         3.442216        -0.898107
 H        -0.644409         0.683319        -2.140575
 H         0.353310         1.799615        -1.412216
 H        -1.472117         2.995680         3.009559
 H        -2.079240         1.251063         2.693077
 H        -0.054539         2.865012         1.043286
