19
Iteration:  4434charge 0 multiplicity 1
 O         0.314673        -0.258233         0.256989
 C        -0.651360         0.734444         0.203200
 C        -2.202174         0.578998         0.240386
 C        -2.090160         2.204147         0.317866
 C        -1.700348         2.585702        -1.202373
 C        -0.578036         1.353925        -1.164079
 O        -2.891305         2.663218         1.421310
 C        -1.707049         2.378577         2.272081
 C        -0.768268         1.983494         1.119845
 H        -0.088321        -1.050945         0.674776
 H        -2.598475        -0.054815        -0.600410
 H        -2.575253         0.225999         1.198485
 H        -2.479799         2.332644        -2.001267
 H        -1.345295         3.550127        -1.453805
 H        -0.813765         0.722756        -2.100549
 H         0.282789         1.997289        -1.418979
 H        -1.473209         3.344493         2.868436
 H        -1.911529         1.504899         2.819343
 H         0.018645         2.762104         0.859213
