19
Iteration:  1559charge 0 multiplicity 1
 O         0.244445        -0.222198         0.448203
 C        -0.677916         0.732203         0.131339
 C        -2.159510         0.444008         0.320772
 C        -2.126961         2.048452         0.286852
 C        -1.789045         2.421758        -1.138971
 C        -0.618671         1.377643        -1.210749
 O        -2.862170         2.734758         1.401856
 C        -1.622348         2.549200         2.196452
 C        -0.745881         2.051796         1.009639
 H         0.677070        -0.562500        -0.363875
 H        -2.652896        -0.009012        -0.558992
 H        -2.502806         0.075710         1.261385
 H        -2.661038         2.427902        -1.905725
 H        -1.319727         3.361676        -1.162027
 H        -0.721867         0.674351        -2.071498
 H         0.273136         1.956495        -1.337721
 H        -1.191288         3.383975         2.601732
 H        -1.751498         1.842110         3.086604
 H         0.030620         2.790702         0.851941
