19
Iteration:  1716
 O         0.297306        -0.290270         0.370164
 C        -0.614608         0.763410         0.200798
 C        -2.155396         0.601739         0.417751
 C        -2.144533         2.071318         0.267181
 C        -1.857044         2.343419        -1.153980
 C        -0.666492         1.381917        -1.249622
 O        -2.756636         2.874648         1.297711
 C        -1.758595         2.385030         2.219424
 C        -0.702996         2.017415         1.080819
 H         0.631723        -0.577040        -0.478400
 H        -2.560366        -0.147958        -0.304585
 H        -2.497264         0.301526         1.444102
 H        -2.718688         2.081280        -1.774294
 H        -1.582927         3.510764        -1.254535
 H        -0.630028         0.584975        -2.021202
 H         0.233222         2.088598        -1.405671
 H        -1.295322         3.324826         2.745697
 H        -2.102682         1.545641         2.881897
 H         0.086396         2.813444         1.231946
