19
Iteration:  3341
 O         0.160511        -0.279068         0.394456
 C        -0.730667         0.764970         0.198845
 C        -2.109654         0.513137         0.205408
 C        -2.077242         2.161654         0.304428
 C        -1.746398         2.568512        -1.141320
 C        -0.590257         1.451368        -1.203858
 O        -2.801690         2.737248         1.404014
 C        -1.704241         2.197632         2.253978
 C        -0.777628         2.030887         0.988347
 H         1.037542         0.027640         0.115333
 H        -2.552608         0.028378        -0.639937
 H        -2.458828        -0.062409         1.200983
 H        -2.458323         2.511998        -1.975223
 H        -1.510599         3.710898        -1.122327
 H        -0.643423         0.708202        -1.984157
 H         0.405600         1.975654        -1.233751
 H        -1.337602         2.985740         2.896995
 H        -1.941783         1.285938         2.834861
 H        -0.038547         2.880665         1.002907
