19
Iteration:  3794charge 0 multiplicity 1
 O         0.250746        -0.314503         0.395596
 C        -0.697567         0.700419         0.194685
 C        -2.216508         0.584780         0.244363
 C        -2.186134         2.061128         0.243848
 C        -1.792280         2.540969        -1.068844
 C        -0.503523         1.568810        -1.172494
 O        -2.803625         2.783641         1.379167
 C        -1.639181         2.208719         2.203918
 C        -0.758698         2.004845         0.964253
 H         1.011587         0.182170         0.751479
 H        -2.807143         0.051815        -0.513093
 H        -2.583829         0.055741         1.146052
 H        -2.578469         2.182406        -1.834171
 H        -1.749043         3.703923        -1.195829
 H        -0.636873         0.879750        -2.066151
 H         0.446872         2.079245        -1.299607
 H        -1.346499         2.952570         2.910824
 H        -2.074927         1.294304         2.653357
 H         0.106935         2.717173         0.872645
