19
Iteration:  4252charge 0 multiplicity 1
 O         0.339332        -0.297660         0.141013
 C        -0.671426         0.720871         0.164962
 C        -2.208102         0.532228         0.300516
 C        -2.062277         2.166026         0.298262
 C        -1.765119         2.405210        -1.205566
 C        -0.478049         1.438767        -1.127016
 O        -2.853536         2.873425         1.428036
 C        -1.747315         2.284991         2.328794
 C        -0.877426         2.079171         1.107150
 H         0.163397        -1.039898         0.765102
 H        -2.630952         0.073470        -0.626862
 H        -2.550132         0.247327         1.273046
 H        -2.507034         2.144358        -1.995205
 H        -1.352524         3.464099        -1.543505
 H        -0.528128         0.808041        -1.989969
 H         0.482803         1.946385        -1.365270
 H        -1.476874         3.058298         3.039474
 H        -2.173992         1.417920         2.915106
 H        -0.063320         2.791863         1.152086
