19
Iteration:  4544charge 0 multiplicity 1
 O         0.360825        -0.319813         0.184657
 C        -0.604317         0.741911         0.181565
 C        -2.107605         0.471990         0.304967
 C        -2.086031         2.070991         0.298161
 C        -1.776479         2.605262        -1.069758
 C        -0.626478         1.463448        -1.169113
 O        -2.795852         2.826166         1.278581
 C        -1.872288         2.311791         2.270559
 C        -0.780317         1.994395         1.123155
 H         0.141118        -0.992440         0.835406
 H        -2.699757        -0.071556        -0.402454
 H        -2.436776         0.271475         1.367307
 H        -2.492795         2.634754        -1.927781
 H        -1.304126         3.463869        -0.746505
 H        -1.059294         0.810826        -1.943789
 H         0.394765         1.822215        -1.451783
 H        -1.600554         3.239250         2.892031
 H        -2.187577         1.573668         2.957275
 H        -0.126647         2.874052         0.860734
