19
Iteration:  4752charge 0 multiplicity 1
 O         0.347281        -0.205795         0.564442
 C        -0.678529         0.746750         0.110215
 C        -2.210961         0.525653         0.091463
 C        -2.093323         2.217151         0.290628
 C        -1.771193         2.612784        -1.152520
 C        -0.591944         1.467359        -1.243120
 O        -2.811634         2.689159         1.383230
 C        -1.685523         2.187031         2.271503
 C        -0.822439         1.994691         1.065992
 H        -0.021674        -1.100484         0.331990
 H        -2.745644         0.093169        -0.772498
 H        -2.692067         0.211369         1.118958
 H        -2.399796         2.295650        -2.032495
 H        -1.350611         3.630130        -1.282912
 H        -0.775713         0.842470        -2.096225
 H         0.436941         1.914829        -1.502385
 H        -1.434978         2.962870         3.135739
 H        -1.982273         1.304582         2.858895
 H         0.064435         2.744564         1.013869
