19
Iteration:  1795charge 0 multiplicity 1
 O         0.138291        -0.297305         0.578885
 C        -0.639099         0.760411         0.196259
 C        -2.079540         0.569790         0.323253
 C        -2.102153         2.131035         0.279819
 C        -1.841476         2.481724        -1.178654
 C        -0.689332         1.396231        -1.305748
 O        -2.898250         2.628340         1.411237
 C        -1.569484         2.444417         2.166093
 C        -0.658449         2.032642         0.912993
 H         0.871244        -0.288650        -0.042283
 H        -2.623934        -0.014582        -0.425299
 H        -2.333592         0.300683         1.321558
 H        -2.681951         2.450919        -1.875609
 H        -1.375762         3.496501        -1.234495
 H        -0.866296         0.591216        -2.008313
 H         0.300811         1.850986        -1.522361
 H        -1.184089         3.433036         2.473282
 H        -1.664996         1.936858         3.082153
 H         0.079907         2.787610         0.808865
