19
Iteration:  3378charge 0 multiplicity 1
 O         0.322165        -0.322175         0.366856
 C        -0.642743         0.725115         0.074650
 C        -2.107471         0.613863         0.279055
 C        -2.033590         2.216788         0.366480
 C        -1.722685         2.546739        -1.148998
 C        -0.657822         1.369397        -1.318007
 O        -2.884105         2.769400         1.387491
 C        -1.849664         2.192531         2.307811
 C        -0.747013         2.056934         1.124442
 H         1.104630        -0.099410        -0.169161
 H        -2.798434         0.214911        -0.576603
 H        -2.625715         0.232174         1.122290
 H        -2.670293         2.562332        -1.717099
 H        -1.263036         3.490873        -1.185272
 H        -0.889600         0.609759        -2.165686
 H         0.331995         1.741366        -1.551762
 H        -1.421228         3.035193         2.955725
 H        -2.368612         1.375056         2.855690
 H         0.140669         2.668648         1.279364
