19
Iteration:  1439charge 0 multiplicity 1
 O         0.263398        -0.277741         0.417340
 C        -0.542949         0.789333         0.241740
 C        -2.120341         0.521593         0.402343
 C        -2.129349         2.082828         0.272876
 C        -1.830790         2.487803        -1.217899
 C        -0.645552         1.458852        -1.292666
 O        -2.852784         2.674922         1.336954
 C        -1.689928         2.484368         2.240483
 C        -0.731287         2.001594         1.019467
 H        -0.209154        -1.100116         0.179464
 H        -2.547678         0.100375        -0.523642
 H        -2.411422         0.139591         1.406602
 H        -2.649986         2.329664        -1.984376
 H        -1.321425         3.382457        -1.231301
 H        -0.716447         0.589665        -2.032855
 H         0.220136         2.030511        -1.532354
 H        -1.404357         3.451184         2.655208
 H        -1.934006         1.776367         3.165940
 H         0.106781         2.674324         0.973092
