19
Iteration:  4037
 O         0.237633        -0.262261         0.330783
 C        -0.702702         0.806117         0.225476
 C        -2.130186         0.392296         0.215436
 C        -2.115074         2.182288         0.327228
 C        -1.748642         2.514951        -1.161246
 C        -0.617759         1.510047        -1.255152
 O        -2.741607         2.811555         1.381062
 C        -1.723758         2.167504         2.250020
 C        -0.791760         2.053984         1.086561
 H         0.593021        -0.238003         1.235978
 H        -2.366955        -0.127149        -0.743768
 H        -2.480164        -0.048518         1.158060
 H        -2.552334         2.371090        -1.839422
 H        -1.352720         3.597651        -1.227222
 H        -0.804136         0.763168        -2.015658
 H         0.377983         2.016163        -1.427145
 H        -1.541937         2.867543         2.998015
 H        -2.258003         1.274058         2.593604
 H        -0.173580         2.856971         0.755252
