19
Iteration:  4638
 O         0.314607        -0.252376         0.531462
 C        -0.639597         0.698608         0.159075
 C        -2.166884         0.472581         0.287730
 C        -2.125228         2.087064         0.277832
 C        -1.754645         2.654110        -1.139380
 C        -0.608247         1.548859        -1.342171
 O        -2.819712         2.831941         1.361131
 C        -1.742109         2.193168         2.237109
 C        -0.770154         1.959638         1.052515
 H         0.514070        -0.760245        -0.310235
 H        -2.750948        -0.242995        -0.419513
 H        -2.362206         0.112787         1.283772
 H        -2.459298         2.397836        -1.985770
 H        -1.308184         3.686634        -1.013625
 H        -1.004208         0.751038        -2.073413
 H         0.374432         1.892725        -1.650912
 H        -1.432295         2.998143         2.974716
 H        -2.144488         1.274765         2.842069
 H        -0.242027         2.898577         0.825812
