19
Iteration:  1503charge 0 multiplicity 1
 O         0.329595        -0.135142         0.511724
 C        -0.655026         0.769346         0.183955
 C        -2.245602         0.590758         0.331369
 C        -2.069051         2.132902         0.257990
 C        -1.885832         2.394052        -1.215621
 C        -0.609811         1.363039        -1.267841
 O        -2.742249         2.811729         1.327667
 C        -1.704390         2.297168         2.312161
 C        -0.728366         1.999733         1.014922
 H         0.473554        -0.673543        -0.270378
 H        -2.820954         0.135480        -0.477631
 H        -2.560921         0.132219         1.288978
 H        -2.820854         1.924436        -1.642088
 H        -1.648699         3.373091        -1.553407
 H        -0.836938         0.518959        -1.943792
 H         0.315972         1.783126        -1.613758
 H        -1.415265         3.056442         2.918077
 H        -1.971933         1.297226         2.723224
 H         0.090289         2.720511         0.884545
