19
Iteration:  2818charge 0 multiplicity 1
 O         0.264937        -0.208905         0.502448
 C        -0.685977         0.735418         0.193509
 C        -2.213322         0.503015         0.297860
 C        -2.189163         2.095247         0.307172
 C        -1.814428         2.422611        -1.221193
 C        -0.617472         1.432206        -1.291978
 O        -2.820376         2.820584         1.430935
 C        -1.473246         2.368076         2.268150
 C        -0.799091         1.996727         0.944208
 H         0.698908        -0.571422        -0.301414
 H        -2.913422        -0.140567        -0.333901
 H        -2.429102         0.210154         1.276640
 H        -2.717850         2.045859        -1.773818
 H        -1.569296         3.478898        -1.537130
 H        -0.746182         0.687003        -2.060080
 H         0.347149         2.006607        -1.448200
 H        -1.023509         3.229680         2.774661
 H        -1.786361         1.555465         2.934379
 H        -0.045296         2.721477         0.711156
