19
Iteration:  1683charge 0 multiplicity 1
 O         0.265903        -0.244478         0.534130
 C        -0.635326         0.732382         0.157260
 C        -2.209993         0.493325         0.288625
 C        -2.166992         2.054681         0.262988
 C        -1.755768         2.444265        -1.082990
 C        -0.655694         1.372341        -1.316606
 O        -2.808025         2.694014         1.440651
 C        -1.600114         2.500017         2.181082
 C        -0.785197         2.134964         0.919769
 H         0.346348        -0.985690        -0.112638
 H        -2.492033        -0.147542        -0.572932
 H        -2.667211         0.124564         1.260974
 H        -2.577269         2.362697        -1.823846
 H        -1.411465         3.585998        -1.104036
 H        -0.760760         0.686059        -2.181632
 H         0.375872         1.850546        -1.298060
 H        -1.177807         3.475158         2.702882
 H        -1.795815         1.739028         3.004383
 H        -0.040973         2.976969         0.753917
