19
Iteration:  1324
 O         0.299041        -0.252033         0.363999
 C        -0.672405         0.695681         0.243480
 C        -2.208859         0.486682         0.377226
 C        -2.058641         2.103321         0.294843
 C        -1.750512         2.451129        -1.253902
 C        -0.612920         1.362837        -1.200547
 O        -2.844013         2.745482         1.339233
 C        -1.713160         2.376151         2.272601
 C        -0.818367         2.170078         1.053515
 H         0.534124        -0.299516        -0.596381
 H        -2.587819        -0.125186        -0.466917
 H        -2.362420         0.183382         1.403370
 H        -2.629490         2.368155        -1.865880
 H        -1.283179         3.487488        -1.366857
 H        -0.691382         0.570845        -1.985387
 H         0.366437         1.928658        -1.332333
 H        -1.420628         3.355418         2.776917
 H        -1.849613         1.656810         3.018291
 H         0.075303         2.870643         0.861182
