19
Iteration:  2622
 O         0.452441        -0.148175         0.422427
 C        -0.708194         0.641903         0.133450
 C        -2.282620         0.501278         0.455316
 C        -2.089330         2.109122         0.391355
 C        -1.873662         2.417780        -1.118591
 C        -0.777333         1.399254        -1.380074
 O        -2.777405         2.866890         1.305876
 C        -1.574195         2.437704         2.226504
 C        -0.717320         1.921725         1.034064
 H         0.407011        -0.865848        -0.241666
 H        -2.989434         0.024673        -0.370793
 H        -2.350446         0.070538         1.507794
 H        -2.879890         2.235402        -1.621009
 H        -1.470515         3.453664        -1.301379
 H        -0.974035         0.606442        -2.099925
 H         0.287640         1.747177        -1.562921
 H        -1.178044         3.422865         2.635784
 H        -1.998511         1.753165         3.022889
 H         0.042996         2.560019         0.617776
