19
Iteration:  1945charge 0 multiplicity 1
 O         0.267307        -0.281608         0.473520
 C        -0.681365         0.760650         0.187423
 C        -2.195689         0.533823         0.321181
 C        -2.168644         2.065611         0.288766
 C        -1.888616         2.470681        -1.143160
 C        -0.659510         1.412803        -1.324605
 O        -2.737769         2.694255         1.344243
 C        -1.509061         2.445270         2.234992
 C        -0.737540         2.036579         0.974563
 H         0.091127        -0.512981         1.404560
 H        -2.860895         0.057501        -0.437784
 H        -2.407548         0.124956         1.299866
 H        -2.642797         2.324643        -1.913495
 H        -1.544441         3.552656        -1.290586
 H        -0.823786         0.591498        -2.046395
 H         0.260838         1.966695        -1.636349
 H        -1.228959         3.520744         2.320439
 H        -1.745721         1.817067         3.200089
 H        -0.062936         2.888720         0.683532
