19
Iteration:  1104
 O         0.407415        -0.132457         0.384225
 C        -0.670796         0.684410         0.195660
 C        -2.175594         0.393741         0.321310
 C        -2.116005         2.098465         0.342006
 C        -1.776849         2.489366        -1.159911
 C        -0.740823         1.355465        -1.290434
 O        -2.770207         2.928742         1.335421
 C        -1.816629         2.319259         2.187229
 C        -0.705396         1.939512         1.045314
 H         0.726448         0.041701         1.306220
 H        -2.678354        -0.226705        -0.449104
 H        -2.611658         0.136709         1.314248
 H        -2.695570         2.359964        -1.800058
 H        -1.338496         3.438556        -1.201759
 H        -0.941844         0.596087        -2.159761
 H         0.224970         1.660790        -1.607681
 H        -1.329341         3.261508         2.762556
 H        -2.238889         1.561461         2.820949
 H         0.134980         2.716841         0.940099
