19
Iteration:    57charge 0 multiplicity 1
 O         0.347532        -0.371600         0.325394
 C        -0.556209         0.710996         0.117985
 C        -2.062778         0.437363         0.263000
 C        -2.142899         1.993216         0.354397
 C        -1.908836         2.381581        -1.125120
 C        -0.647205         1.364199        -1.286855
 O        -2.928670         2.763910         1.406160
 C        -1.629092         2.725304         2.281960
 C        -0.757033         2.126912         1.040770
 H         0.342521        -0.517364         1.306894
 H        -2.565033        -0.021633        -0.596681
 H        -2.421296        -0.095881         1.196946
 H        -2.745529         2.155877        -1.725459
 H        -1.637833         3.450396        -1.277869
 H        -0.840420         0.645119        -2.001508
 H         0.228885         2.000218        -1.669955
 H        -1.283283         3.753256         2.500550
 H        -1.870376         2.169906         3.199908
 H        -0.041009         2.945769         0.744721
