19
Iteration:    49charge 0 multiplicity 1
 O         0.342423        -0.388770         0.320315
 C        -0.610388         0.701108         0.099337
 C        -2.115513         0.499435         0.301799
 C        -2.190027         2.055119         0.386647
 C        -1.891231         2.349155        -1.060976
 C        -0.597662         1.394954        -1.280498
 O        -2.909835         2.669384         1.373886
 C        -1.607604         2.736093         2.292338
 C        -0.770930         2.141617         0.980104
 H         0.477621        -0.428437         1.301123
 H        -2.561172         0.152325        -0.665725
 H        -2.229491        -0.238980         1.124881
 H        -2.707776         2.121109        -1.777523
 H        -1.651170         3.419076        -1.175078
 H        -0.770763         0.665284        -2.096170
 H         0.457862         1.859756        -1.397293
 H        -1.360836         3.776740         2.090286
 H        -1.775631         2.315820         3.332698
 H         0.015085         2.972606         0.667985
