19
Iteration:  2777charge 0 multiplicity 1
 O         0.196493        -0.406443         0.343655
 C        -0.687343         0.761174         0.263493
 C        -2.155268         0.539302         0.389988
 C        -2.046082         2.103550         0.307096
 C        -1.918803         2.379482        -1.132070
 C        -0.699732         1.489745        -1.293780
 O        -2.802124         2.771624         1.286044
 C        -1.568928         2.372098         2.239465
 C        -0.661157         2.170121         1.031997
 H         0.963734         0.012989         0.753814
 H        -2.505955        -0.106594        -0.466722
 H        -2.421900         0.250466         1.366609
 H        -2.719977         1.987727        -1.769228
 H        -1.675701         3.414243        -1.294490
 H        -0.876517         0.637147        -1.860971
 H         0.241728         2.025211        -1.587454
 H        -1.499638         3.368100         2.789181
 H        -1.509393         1.503089         2.878091
 H        -0.044630         2.919470         0.578299
