19
Iteration:  1038charge 0 multiplicity 1
 O         0.266859        -0.354325         0.385406
 C        -0.593466         0.787567         0.206398
 C        -2.108183         0.516152         0.279007
 C        -2.115658         2.092160         0.300244
 C        -1.929933         2.345810        -1.205754
 C        -0.582431         1.523489        -1.240668
 O        -2.818342         2.675754         1.329207
 C        -1.672005         2.429911         2.271790
 C        -0.683508         2.204975         1.045643
 H        -0.290494        -0.930416         0.911433
 H        -2.812501         0.006974        -0.389286
 H        -2.494256         0.253295         1.280245
 H        -2.659535         1.859502        -1.901273
 H        -1.665005         3.309414        -1.512811
 H        -0.488357         0.798525        -2.085302
 H         0.257691         2.131058        -1.378721
 H        -1.376898         3.437696         2.784378
 H        -2.024870         1.777227         3.070173
 H         0.025289         3.055049         1.042209
