19
Iteration:  3340
 O         0.160793        -0.282270         0.398192
 C        -0.730058         0.758974         0.202466
 C        -2.114726         0.515582         0.206817
 C        -2.080253         2.160779         0.306377
 C        -1.755390         2.566824        -1.135276
 C        -0.586308         1.459128        -1.207531
 O        -2.803732         2.738143         1.396580
 C        -1.695500         2.200338         2.257802
 C        -0.774416         2.022334         0.988247
 H         1.027247         0.058023         0.124268
 H        -2.573650         0.026200        -0.634025
 H        -2.447162        -0.105917         1.165443
 H        -2.454814         2.537354        -1.988741
 H        -1.513909         3.731451        -1.125259
 H        -0.608901         0.733565        -1.989480
 H         0.413083         1.989299        -1.211763
 H        -1.341974         3.007619         2.868994
 H        -1.935639         1.293579         2.827577
 H        -0.028206         2.868195         0.961599
