19
Iteration:  3517
 O         0.311392        -0.178482         0.394374
 C        -0.740010         0.712239         0.144126
 C        -2.238485         0.423905         0.178395
 C        -2.174826         2.130095         0.320509
 C        -1.678373         2.594747        -1.092180
 C        -0.582219         1.480595        -1.211263
 O        -2.766968         2.836489         1.363013
 C        -1.705659         2.234253         2.312992
 C        -0.823693         1.884087         1.031410
 H         1.180704        -0.037116        -0.004234
 H        -2.697562        -0.039489        -0.636571
 H        -2.650426         0.030790         1.052807
 H        -2.524658         2.358750        -1.809419
 H        -1.478804         3.659083        -1.109407
 H        -0.792103         0.762614        -2.032889
 H         0.433044         1.756042        -1.287725
 H        -1.373034         3.097801         2.851984
 H        -2.116076         1.430399         2.893788
 H         0.042949         2.581602         0.898091
