19
Iteration:  1527charge 0 multiplicity 1
 O         0.260354        -0.289046         0.579771
 C        -0.580288         0.744575         0.183245
 C        -2.118011         0.533669         0.344167
 C        -2.122004         2.139273         0.232203
 C        -1.836138         2.447972        -1.171244
 C        -0.669860         1.412964        -1.308187
 O        -2.878530         2.746181         1.421759
 C        -1.603739         2.366617         2.163598
 C        -0.764327         2.119362         0.973912
 H         0.669044        -0.750830        -0.184808
 H        -2.734721        -0.019091        -0.408018
 H        -2.522827         0.340132         1.314966
 H        -2.667796         2.313904        -1.931628
 H        -1.361768         3.364810        -1.207891
 H        -0.894653         0.597600        -2.064901
 H         0.233849         1.855785        -1.634802
 H        -1.162996         3.130441         2.707861
 H        -1.847376         1.397446         2.665547
 H        -0.071626         2.930222         0.857947
