19
Iteration:  3239
 O         0.377055        -0.191855         0.384622
 C        -0.673221         0.743098         0.168128
 C        -2.170728         0.544661         0.211550
 C        -2.142647         2.092585         0.315737
 C        -1.761584         2.503464        -1.148298
 C        -0.651808         1.456826        -1.341042
 O        -2.770151         2.847288         1.436905
 C        -1.766642         2.268552         2.276950
 C        -0.765691         1.906593         1.092314
 H         0.145281        -1.053180         0.799324
 H        -2.652783         0.033496        -0.718838
 H        -2.530373         0.003402         1.016812
 H        -2.651054         2.670701        -1.862319
 H        -1.226730         3.548890        -1.112759
 H        -0.986810         0.700741        -2.098321
 H         0.282431         1.891773        -1.638180
 H        -1.330896         3.095893         2.833235
 H        -2.160490         1.450886         2.801058
 H         0.013254         2.633123         1.073008
