19
Iteration:  2578
 O         0.290503        -0.206471         0.425358
 C        -0.664739         0.766428         0.211252
 C        -2.162784         0.507994         0.423705
 C        -2.092633         2.169176         0.304025
 C        -1.878907         2.359675        -1.227938
 C        -0.724829         1.255260        -1.254556
 O        -2.798767         2.830244         1.426055
 C        -1.543399         2.328293         2.234397
 C        -0.710554         2.201442         0.937429
 H         0.493784        -0.678482        -0.401634
 H        -2.663998         0.048687        -0.527337
 H        -2.696419         0.131088         1.382707
 H        -2.751200         2.035699        -1.876890
 H        -1.603136         3.429673        -1.372245
 H        -1.053423         0.498574        -1.970448
 H         0.128595         1.803757        -1.722917
 H        -1.081528         2.954398         3.030118
 H        -1.824781         1.307230         2.646533
 H        -0.058678         3.083869         0.799463
