19
Iteration:  1340charge 0 multiplicity 1
 O         0.352866        -0.220104         0.356003
 C        -0.604121         0.795856         0.229688
 C        -2.135904         0.542020         0.316395
 C        -2.169573         2.151868         0.279222
 C        -1.787549         2.411352        -1.143735
 C        -0.654402         1.319567        -1.189068
 O        -2.807409         2.829420         1.322784
 C        -1.768337         2.381991         2.253984
 C        -0.744717         2.002990         1.107493
 H         0.658258        -0.562575        -0.518165
 H        -2.606534         0.099546        -0.559324
 H        -2.631418         0.220027         1.251146
 H        -2.549213         1.977511        -1.847920
 H        -1.481161         3.409683        -1.333991
 H        -0.989586         0.515274        -1.888498
 H         0.312142         1.594994        -1.617806
 H        -1.386857         3.148543         2.882116
 H        -2.213047         1.442113         2.787066
 H        -0.042298         2.791826         0.883842
