19
Iteration:  3679
 O         0.146363        -0.385650         0.341795
 C        -0.607183         0.744590         0.096882
 C        -2.138088         0.547107         0.173890
 C        -2.044893         2.140755         0.322132
 C        -1.817322         2.561674        -1.099292
 C        -0.497495         1.524275        -1.224882
 O        -2.842332         2.653669         1.363877
 C        -1.733426         2.349644         2.338701
 C        -0.771578         2.036770         1.091396
 H         1.005804        -0.081967         0.682641
 H        -2.660585         0.053666        -0.637068
 H        -2.524012         0.117676         1.072369
 H        -2.695938         2.131080        -1.582578
 H        -1.704628         3.613906        -1.355421
 H        -0.562446         0.917101        -2.097284
 H         0.452488         2.131751        -1.355991
 H        -1.358717         3.261569         2.812381
 H        -2.079357         1.533118         2.987439
 H        -0.004150         2.811608         0.934012
