19
Iteration:  1004charge 0 multiplicity 1
 O         0.359217        -0.260429         0.391138
 C        -0.650782         0.749920         0.112279
 C        -2.150072         0.361424         0.401443
 C        -2.142632         2.099271         0.252907
 C        -1.863316         2.371855        -1.127486
 C        -0.563365         1.488124        -1.190906
 O        -2.818931         2.827797         1.296690
 C        -1.662434         2.419889         2.275715
 C        -0.805444         2.111010         0.987670
 H        -0.021959        -1.133924         0.279125
 H        -2.860100        -0.196109        -0.269042
 H        -2.165498         0.193424         1.516836
 H        -2.572142         2.097488        -1.940903
 H        -1.676701         3.429728        -1.293767
 H        -0.636949         0.844942        -2.129951
 H         0.260691         2.121757        -1.083780
 H        -1.296338         3.392505         2.713412
 H        -2.085720         1.676380         2.992374
 H        -0.109389         2.926061         0.806970
