19
Iteration:  4072charge 0 multiplicity 1
 O         0.356822        -0.336129         0.377390
 C        -0.715724         0.761679         0.106983
 C        -2.276384         0.600869         0.247717
 C        -2.110716         2.165421         0.285542
 C        -1.731210         2.544027        -1.105385
 C        -0.500782         1.508059        -1.324710
 O        -2.884817         2.601992         1.444047
 C        -1.749799         2.380056         2.247888
 C        -0.684597         2.004619         1.049499
 H         0.183307        -0.918570         1.139872
 H        -2.837566         0.152660        -0.582728
 H        -2.670008         0.069115         1.194955
 H        -2.606572         2.447407        -1.862873
 H        -1.390901         3.600594        -1.210035
 H        -0.612319         0.830983        -2.143916
 H         0.469102         1.921521        -1.387655
 H        -1.450629         3.236853         2.942333
 H        -1.881770         1.567105         2.943927
 H        -0.103106         2.902111         0.868545
