19
Iteration:  3715charge 0 multiplicity 1
 O         0.242477        -0.397672         0.277233
 C        -0.629742         0.723775         0.235020
 C        -2.222252         0.442685         0.232144
 C        -2.158279         2.092167         0.215352
 C        -1.774668         2.606695        -1.110666
 C        -0.456936         1.591883        -1.102886
 O        -2.812453         2.732306         1.407073
 C        -1.691872         2.397840         2.256954
 C        -0.865806         1.973660         1.047126
 H         1.054895        -0.380866        -0.250688
 H        -2.577112        -0.133058        -0.572604
 H        -2.477236         0.166502         1.242209
 H        -2.468293         2.211660        -1.994049
 H        -1.677767         3.681919        -1.237567
 H        -0.596983         0.827963        -1.959921
 H         0.483897         2.061643        -1.155174
 H        -1.386565         3.256737         2.908680
 H        -1.996474         1.743672         3.048270
 H        -0.230896         2.902852         0.886130
