19
Iteration:  1302
 O         0.249694        -0.364245         0.469370
 C        -0.625799         0.737922         0.135528
 C        -2.168954         0.588774         0.368783
 C        -2.183071         2.048199         0.278081
 C        -1.802696         2.419279        -1.125347
 C        -0.529298         1.543510        -1.228224
 O        -2.890835         2.711415         1.396869
 C        -1.677057         2.467604         2.153497
 C        -0.742566         1.996194         0.958362
 H         0.934805        -0.392282        -0.210465
 H        -2.634569        -0.047773        -0.415835
 H        -2.244207         0.323965         1.431554
 H        -2.485053         2.227606        -1.951491
 H        -1.592628         3.532375        -1.126093
 H        -0.799277         0.750480        -1.932267
 H         0.505409         1.983629        -1.330404
 H        -1.313746         3.426512         2.688410
 H        -1.929526         1.801178         2.935627
 H        -0.019593         2.858777         0.707228
