19
Iteration:  2087
 O         0.334208        -0.276656         0.417392
 C        -0.640260         0.783735         0.188036
 C        -2.200376         0.532953         0.372400
 C        -2.126898         2.138946         0.291194
 C        -1.927643         2.403814        -1.245105
 C        -0.654481         1.350718        -1.287196
 O        -2.742026         2.771686         1.411771
 C        -1.610186         2.388882         2.243316
 C        -0.720281         2.138981         0.961561
 H        -0.080147        -0.748727         1.184684
 H        -2.716550         0.195177        -0.479372
 H        -2.727761         0.179542         1.233063
 H        -2.665327         2.109338        -2.012625
 H        -1.640061         3.434800        -1.462572
 H        -0.888581         0.456715        -1.918757
 H         0.233400         1.848247        -1.667862
 H        -1.304696         3.134244         2.982284
 H        -1.809194         1.413186         2.842314
 H         0.112482         2.851003         0.879944
