19
Iteration:  4113
 O         0.286363        -0.299716         0.192281
 C        -0.603996         0.736108         0.222958
 C        -2.193471         0.463386         0.235761
 C        -2.122175         2.010462         0.343314
 C        -1.739036         2.497217        -1.076434
 C        -0.546286         1.512806        -1.211269
 O        -2.818518         2.843689         1.343390
 C        -1.796697         2.371884         2.258171
 C        -0.775102         2.063971         1.133008
 H        -0.010558        -0.915883         0.893422
 H        -2.519695        -0.027544        -0.703631
 H        -2.460908        -0.126295         1.150852
 H        -2.504477         2.299111        -1.763452
 H        -1.491124         3.584258        -1.189132
 H        -0.551301         0.869823        -2.112723
 H         0.450866         2.108406        -1.394619
 H        -1.549730         3.122188         2.986463
 H        -2.171307         1.453129         2.885649
 H         0.063775         2.708864         0.943350
