19
Iteration:   349charge 0 multiplicity 1
 O         0.442402        -0.177926         0.378541
 C        -0.632301         0.790127         0.240276
 C        -2.148339         0.412963         0.423096
 C        -2.101645         2.135130         0.300046
 C        -1.974506         2.249672        -1.207031
 C        -0.810245         1.206330        -1.308439
 O        -2.675539         2.943539         1.402492
 C        -1.682539         2.523787         2.229504
 C        -0.778883         2.108626         1.035731
 H         0.427168        -0.787322        -0.390251
 H        -2.667582        -0.061290        -0.334646
 H        -2.363600         0.157018         1.468965
 H        -2.837614         1.947113        -1.715495
 H        -1.703637         3.257888        -1.696141
 H        -1.076108         0.360588        -1.967113
 H         0.173466         1.527964        -1.748823
 H        -1.267000         3.416045         2.697482
 H        -1.996500         1.694942         2.945909
 H         0.011339         2.776101         0.833334
