19
Iteration:  4098charge 0 multiplicity 1
 O         0.274748        -0.252870         0.209161
 C        -0.718623         0.820947         0.208852
 C        -2.131211         0.491728         0.238407
 C        -2.201471         2.140309         0.235157
 C        -1.748983         2.511833        -1.152447
 C        -0.484744         1.467518        -1.100143
 O        -2.838791         2.706422         1.400238
 C        -1.686647         2.362234         2.268693
 C        -0.783887         1.968954         1.089613
 H        -0.002290        -1.038547         0.704421
 H        -2.558963        -0.070562        -0.607683
 H        -2.575373         0.107123         1.109350
 H        -2.409739         2.429466        -2.053471
 H        -1.390267         3.532689        -1.099989
 H        -0.625598         0.594021        -1.781168
 H         0.547099         1.871444        -1.120978
 H        -1.315972         3.301564         2.797251
 H        -1.965276         1.614652         3.050650
 H        -0.194496         2.886262         0.926147
