19
Iteration:  2612
 O         0.427572        -0.124398         0.428680
 C        -0.705412         0.658513         0.163032
 C        -2.224813         0.506403         0.448841
 C        -2.077610         2.070564         0.337887
 C        -1.916195         2.417886        -1.081236
 C        -0.749016         1.326173        -1.395208
 O        -2.779462         2.929332         1.354336
 C        -1.615247         2.417559         2.221532
 C        -0.709262         1.903391         0.983072
 H         0.692616        -0.770710        -0.240169
 H        -2.900621        -0.100045        -0.362099
 H        -2.586553         0.190132         1.488350
 H        -2.694474         2.364075        -1.908627
 H        -1.488479         3.445063        -1.216405
 H        -1.228398         0.649533        -2.069335
 H         0.255084         1.769744        -1.854571
 H        -0.868971         3.093573         2.792730
 H        -2.130447         1.734775         2.955735
 H        -0.024670         2.791929         0.896350
