19
Iteration:  1426charge 0 multiplicity 1
 O         0.278720        -0.308931         0.473967
 C        -0.672641         0.749235         0.145616
 C        -2.075934         0.553469         0.268429
 C        -2.094124         2.160756         0.265526
 C        -1.858399         2.500939        -1.218711
 C        -0.542804         1.384137        -1.274417
 O        -2.889549         2.619859         1.432591
 C        -1.659274         2.478567         2.231596
 C        -0.742170         2.123520         1.068325
 H        -0.208944        -1.116774         0.237314
 H        -2.665272        -0.117477        -0.332877
 H        -2.350835         0.261057         1.318815
 H        -2.656803         2.346887        -1.973716
 H        -1.710771         3.562881        -1.429856
 H        -0.834628         0.579807        -1.938069
 H         0.461516         1.780362        -1.602239
 H        -1.308344         3.371949         2.589356
 H        -1.872642         1.738471         3.108224
 H         0.085111         2.855403         0.826566
