19
Iteration:  2644charge 0 multiplicity 1
 O         0.316219        -0.252533         0.331806
 C        -0.665832         0.711344         0.229067
 C        -2.164201         0.522405         0.392716
 C        -2.140846         2.069493         0.290910
 C        -1.996061         2.391564        -1.171798
 C        -0.655556         1.401888        -1.201141
 O        -2.748048         2.772444         1.422819
 C        -1.569039         2.502576         2.210151
 C        -0.720184         2.092353         0.968400
 H        -0.033853        -1.039869        -0.128021
 H        -2.565718        -0.127098        -0.494032
 H        -2.502389         0.309343         1.437596
 H        -2.696048         2.135714        -2.022196
 H        -1.494203         3.365127        -1.318513
 H        -0.824965         0.599292        -1.901348
 H         0.363599         1.840703        -1.409276
 H        -0.984250         3.317393         2.710604
 H        -1.947505         1.772141         2.970911
 H        -0.043487         2.858809         0.605639
