19
Iteration:  4470
 O         0.218878        -0.318783         0.508390
 C        -0.611334         0.761603         0.061795
 C        -2.128193         0.487770         0.205124
 C        -2.135105         2.066028         0.234131
 C        -1.829661         2.623297        -1.076479
 C        -0.592792         1.545314        -1.275889
 O        -2.808155         2.760998         1.412954
 C        -1.645821         2.276599         2.231369
 C        -0.756808         2.013950         0.970053
 H        -0.250386        -0.692105         1.290503
 H        -2.515312        -0.066540        -0.632173
 H        -2.415628        -0.008562         1.198741
 H        -2.521520         2.321149        -1.830117
 H        -1.428017         3.656366        -1.099054
 H        -0.554763         0.755259        -1.976221
 H         0.329052         2.213611        -1.335569
 H        -1.270840         2.894188         3.054410
 H        -2.027307         1.366210         2.772558
 H        -0.101150         2.836981         0.749409
