19
Iteration:  4141
 O         0.350561        -0.355312         0.245472
 C        -0.607909         0.721325         0.132238
 C        -2.175270         0.606518         0.309254
 C        -2.050291         2.136254         0.313152
 C        -1.822892         2.565365        -1.137956
 C        -0.549425         1.476788        -1.235390
 O        -2.808347         2.849257         1.342517
 C        -1.896019         2.220387         2.266788
 C        -0.761373         1.956598         1.115292
 H         0.424013        -0.448408         1.215415
 H        -2.724251        -0.092888        -0.347192
 H        -2.283398         0.121658         1.258278
 H        -2.740295         2.224108        -1.766638
 H        -1.594914         3.596900        -1.444229
 H        -0.584607         0.881033        -2.147306
 H         0.328078         2.078286        -1.351010
 H        -1.489890         3.021786         2.977263
 H        -2.379346         1.571349         2.967163
 H         0.149397         2.589835         1.197598
