19
Iteration:  3109charge 0 multiplicity 1
 O         0.371341        -0.191218         0.317839
 C        -0.722704         0.731564         0.104726
 C        -2.297711         0.529639         0.326896
 C        -2.166186         2.119477         0.333175
 C        -1.771053         2.498313        -1.069717
 C        -0.540707         1.407198        -1.268155
 O        -2.758406         2.785833         1.414799
 C        -1.682329         2.315048         2.217125
 C        -0.779931         1.927065         0.996346
 H         0.438886        -0.218323         1.300277
 H        -2.856522         0.092573        -0.587125
 H        -2.603511         0.121542         1.211463
 H        -2.543423         2.372427        -1.740532
 H        -1.454245         3.555439        -1.257293
 H        -0.801206         0.754203        -2.119291
 H         0.338495         1.947245        -1.539794
 H        -1.330224         3.012479         2.959195
 H        -1.956422         1.423896         2.828704
 H        -0.088489         2.730361         0.673121
