19
Iteration:  1869
 O         0.367207        -0.332634         0.321451
 C        -0.654550         0.632923         0.145232
 C        -2.142377         0.515486         0.473009
 C        -2.020538         2.144451         0.280534
 C        -1.967644         2.415345        -1.179310
 C        -0.716348         1.361727        -1.273746
 O        -2.708402         2.963666         1.228852
 C        -1.727083         2.436965         2.318545
 C        -0.807025         1.942721         1.061888
 H         1.037281         0.112045         0.907064
 H        -2.766571         0.034880        -0.323105
 H        -2.321325         0.216622         1.475009
 H        -2.858257         2.108927        -1.707120
 H        -1.495912         3.446286        -1.443492
 H        -0.636849         0.797656        -2.206325
 H         0.110415         2.100732        -1.082959
 H        -1.423371         3.056341         3.220738
 H        -2.304638         1.520856         2.655682
 H        -0.032518         2.757102         0.914026
