19
Iteration:  2556
 O         0.290187        -0.276830         0.476323
 C        -0.685753         0.779398         0.139425
 C        -2.180111         0.641424         0.393037
 C        -2.144130         2.158926         0.323270
 C        -1.968436         2.340838        -1.230797
 C        -0.635972         1.404866        -1.289934
 O        -2.751940         2.707545         1.431239
 C        -1.583589         2.450532         2.226388
 C        -0.677465         2.015732         0.951040
 H         0.370376        -0.888645        -0.277084
 H        -2.926939         0.012450        -0.256294
 H        -2.144685         0.266449         1.500305
 H        -2.837773         1.906593        -1.822800
 H        -1.689237         3.370129        -1.572562
 H        -0.777238         0.630649        -2.060453
 H         0.247624         2.074202        -1.563352
 H        -1.124808         3.359684         2.689101
 H        -1.782958         1.672925         3.053900
 H        -0.020288         2.850242         0.786213
