19
Iteration:   927charge 0 multiplicity 1
 O         0.239074        -0.291181         0.527627
 C        -0.614618         0.790531         0.152443
 C        -2.088908         0.452333         0.351968
 C        -2.213194         2.116955         0.293771
 C        -1.872402         2.388724        -1.131043
 C        -0.593323         1.417464        -1.265848
 O        -2.826289         2.826822         1.403772
 C        -1.582622         2.372296         2.178691
 C        -0.843369         2.120794         0.889562
 H         1.134284        -0.250642         0.119611
 H        -2.586240        -0.140884        -0.488765
 H        -2.196654        -0.124384         1.321231
 H        -2.574990         2.208238        -1.933560
 H        -1.476174         3.391485        -1.377694
 H        -0.857437         0.543180        -1.932542
 H         0.313766         1.914993        -1.513893
 H        -1.280366         3.196802         2.838652
 H        -1.851679         1.528380         2.899012
 H        -0.117569         2.902296         0.677597
