19
Iteration:  1814
 O         0.210904        -0.429717         0.493204
 C        -0.625611         0.772519         0.188154
 C        -2.213770         0.548108         0.313346
 C        -2.131733         2.111024         0.251452
 C        -1.848260         2.452775        -1.202814
 C        -0.618819         1.403802        -1.324828
 O        -2.767833         2.636135         1.440044
 C        -1.597765         2.540576         2.251239
 C        -0.763457         2.168578         0.995129
 H         1.151601        -0.178746         0.388714
 H        -2.803038         0.035725        -0.494001
 H        -2.626690         0.220189         1.271864
 H        -2.567343         2.158819        -1.952268
 H        -1.512620         3.515404        -1.549383
 H        -0.967080         0.662756        -2.062061
 H         0.428351         1.675608        -1.682138
 H        -1.548535         3.480626         2.849829
 H        -1.541168         1.760604         3.053241
 H        -0.094767         3.033319         0.731053
