19
Iteration:  1570
 O         0.366376        -0.284290         0.410070
 C        -0.648857         0.697017         0.267827
 C        -2.232370         0.571665         0.298293
 C        -2.103711         2.085213         0.314569
 C        -1.800108         2.418440        -1.099090
 C        -0.600548         1.436317        -1.252919
 O        -2.895276         2.780987         1.372120
 C        -1.613070         2.515511         2.163954
 C        -0.793692         1.960037         1.039442
 H         0.684666        -0.532648        -0.497252
 H        -2.769617        -0.022158        -0.470141
 H        -2.518697         0.195881         1.250729
 H        -2.798041         2.080259        -1.680474
 H        -1.596213         3.408349        -1.358362
 H        -0.703682         0.572369        -1.968571
 H         0.296248         1.970535        -1.483105
 H        -1.351486         3.462979         2.421913
 H        -1.818903         1.764498         3.019411
 H        -0.034608         2.588425         0.615575
