19
Iteration:   110
 O         0.521041        -0.033414         0.455713
 C        -0.726301         0.713283         0.224408
 C        -2.319679         0.603857         0.388457
 C        -2.153764         2.164326         0.323922
 C        -1.877128         2.248196        -1.249738
 C        -0.682635         1.280729        -1.327633
 O        -2.760915         2.878504         1.408471
 C        -1.614811         2.303029         2.205180
 C        -0.751114         2.024826         0.967970
 H         0.467112        -1.012862         0.314599
 H        -2.848606         0.089948        -0.399963
 H        -2.605120         0.246224         1.397483
 H        -2.787906         1.936535        -1.699421
 H        -1.670411         3.296263        -1.581138
 H        -0.877364         0.510286        -2.024395
 H         0.230777         1.803928        -1.612672
 H        -1.321416         3.051532         2.894659
 H        -1.842349         1.453726         2.810320
 H         0.026135         2.705165         0.826101
