19
Iteration:  2081
 O         0.302541        -0.249140         0.444799
 C        -0.689951         0.814537         0.174095
 C        -2.184938         0.596402         0.387136
 C        -2.124085         2.138618         0.218969
 C        -1.912583         2.373567        -1.226931
 C        -0.659061         1.374663        -1.266591
 O        -2.722179         2.699736         1.423086
 C        -1.593218         2.378083         2.216627
 C        -0.739226         2.121484         0.966376
 H         0.007687        -0.804045         1.187087
 H        -2.790718         0.245538        -0.505973
 H        -2.568091         0.054569         1.303926
 H        -2.719792         2.215309        -1.968289
 H        -1.616706         3.427846        -1.329217
 H        -0.845570         0.504682        -1.884230
 H         0.320415         1.765173        -1.600311
 H        -1.139490         3.219740         2.793204
 H        -1.840441         1.528468         2.804922
 H         0.167222         2.714615         0.815050
