19
Iteration:  3015
 O         0.372291        -0.233814         0.302653
 C        -0.623179         0.715576         0.173857
 C        -2.296203         0.472017         0.259862
 C        -2.168630         2.100749         0.328485
 C        -1.827742         2.404783        -1.096077
 C        -0.628347         1.409849        -1.171826
 O        -2.762780         2.840528         1.358547
 C        -1.638682         2.438784         2.322075
 C        -0.786366         1.969694         1.062262
 H         0.684881        -0.515114        -0.568798
 H        -2.647393         0.030144        -0.676723
 H        -2.691084        -0.044196         1.139990
 H        -2.664647         2.268261        -1.820064
 H        -1.510889         3.422891        -1.379318
 H        -0.758879         0.693771        -1.980344
 H         0.376193         1.909222        -1.419708
 H        -1.291756         3.346298         2.812402
 H        -2.016083         1.827150         3.116649
 H        -0.181027         2.862193         0.799721
