19
Iteration:  2816charge 0 multiplicity 1
 O         0.253626        -0.217167         0.507697
 C        -0.683543         0.729042         0.193946
 C        -2.202726         0.503402         0.278721
 C        -2.183489         2.098066         0.319951
 C        -1.822468         2.420045        -1.217238
 C        -0.608913         1.445020        -1.292480
 O        -2.822533         2.832105         1.438448
 C        -1.480484         2.354796         2.262349
 C        -0.813776         2.005654         0.940167
 H         0.720100        -0.527695        -0.293436
 H        -2.853881        -0.162196        -0.291801
 H        -2.365747         0.180918         1.318478
 H        -2.708082         2.063408        -1.770249
 H        -1.590969         3.454941        -1.584977
 H        -0.703705         0.656186        -2.112061
 H         0.337607         1.967541        -1.476555
 H        -1.040483         3.201995         2.715030
 H        -1.747383         1.599760         3.044387
 H         0.013536         2.704100         0.637611
