19
Iteration:  2584
 O         0.344690        -0.216408         0.429813
 C        -0.714095         0.805233         0.231256
 C        -2.180295         0.492622         0.395351
 C        -2.097278         2.166959         0.342181
 C        -1.885970         2.384976        -1.224928
 C        -0.760083         1.273716        -1.250841
 O        -2.743547         2.843329         1.397254
 C        -1.562642         2.334074         2.252781
 C        -0.733515         2.146610         0.920198
 H         0.572614        -0.666625        -0.390458
 H        -2.657557         0.003660        -0.359462
 H        -2.413517        -0.060467         1.265978
 H        -2.688756         2.246929        -1.908917
 H        -1.390643         3.312922        -1.558661
 H        -1.154682         0.405297        -1.859888
 H         0.122067         1.684114        -1.711318
 H        -1.157846         2.889295         3.081786
 H        -1.896652         1.397196         2.638711
 H        -0.323193         3.162473         0.727006
