19
Iteration:  2133
 O         0.367332        -0.227025         0.176578
 C        -0.679202         0.749551         0.231053
 C        -2.309357         0.498310         0.498256
 C        -2.126312         2.010821         0.259541
 C        -1.828119         2.387705        -1.168718
 C        -0.674845         1.406318        -1.256000
 O        -2.730117         2.884246         1.247959
 C        -1.718655         2.463660         2.266441
 C        -0.645041         1.971792         1.130913
 H         0.657710        -0.651262         1.011646
 H        -2.762698        -0.181647        -0.145893
 H        -2.428005         0.317992         1.575879
 H        -2.769585         2.113445        -1.725699
 H        -1.599163         3.413036        -1.292006
 H        -0.833354         0.625552        -2.010738
 H         0.312279         1.873748        -1.288568
 H        -1.384083         3.333330         2.971639
 H        -2.118090         1.672883         2.996586
 H        -0.067917         2.759413         0.700353
