19
Iteration:  2866
 O         0.380474        -0.267115         0.302107
 C        -0.614891         0.726964         0.085116
 C        -2.087748         0.490827         0.404913
 C        -2.098893         2.116382         0.378565
 C        -1.839940         2.466615        -1.229588
 C        -0.735955         1.366961        -1.348423
 O        -2.787523         2.888843         1.348079
 C        -1.758981         2.367685         2.311721
 C        -0.767073         2.075402         1.145217
 H         0.018590        -0.974969         0.854718
 H        -2.602925        -0.123578        -0.313406
 H        -2.294265        -0.101981         1.439208
 H        -2.533177         2.306297        -2.082112
 H        -1.342687         3.417656        -1.233195
 H        -1.260345         0.611069        -1.953212
 H         0.227681         1.619033        -1.777942
 H        -1.373682         3.321903         2.805718
 H        -2.132040         1.487230         2.934430
 H         0.072519         2.815368         1.086819
