19
Iteration:  2668
 O         0.194283        -0.339917         0.401709
 C        -0.603938         0.780631         0.077082
 C        -2.085229         0.559329         0.386459
 C        -2.151736         2.092848         0.307991
 C        -1.921532         2.302664        -1.147115
 C        -0.631855         1.384013        -1.314639
 O        -2.817671         2.748047         1.473933
 C        -1.555649         2.455973         2.266676
 C        -0.721987         2.267016         0.960131
 H        -0.318221        -1.144806         0.151142
 H        -2.692554         0.027580        -0.501714
 H        -2.155488         0.281040         1.401474
 H        -2.536247         1.766904        -1.899800
 H        -1.670503         3.276206        -1.550517
 H        -0.737989         0.743461        -2.143416
 H         0.248056         2.110589        -1.501283
 H        -1.148155         3.326376         2.900467
 H        -1.622064         1.587598         2.928501
 H         0.087629         3.033388         0.910950
