19
Iteration:   537charge 0 multiplicity 1
 O         0.215363        -0.235785         0.495294
 C        -0.671682         0.772948         0.218291
 C        -2.204259         0.543291         0.469320
 C        -2.181411         2.052576         0.290914
 C        -1.923509         2.289402        -1.215653
 C        -0.677330         1.298104        -1.290143
 O        -2.699327         2.731012         1.431093
 C        -1.487645         2.440672         2.156733
 C        -0.762097         2.233662         0.783517
 H         0.909659         0.104961         1.063214
 H        -2.793088         0.036655        -0.270255
 H        -2.518379         0.256786         1.452928
 H        -2.742358         1.937340        -1.909678
 H        -1.804097         3.353554        -1.403817
 H        -0.522646         0.600384        -2.135016
 H         0.291068         1.921547        -1.348194
 H        -1.040270         3.392452         2.744075
 H        -1.605697         1.627369         2.911160
 H        -0.120572         2.918832         0.258828
