19
Iteration:  3261
 O         0.333804        -0.299464         0.190959
 C        -0.594661         0.743517         0.136980
 C        -2.188223         0.588413         0.389764
 C        -2.085523         2.217398         0.326482
 C        -1.709481         2.569281        -1.148447
 C        -0.586119         1.377913        -1.214235
 O        -2.850865         2.752476         1.362587
 C        -1.762642         2.233195         2.310691
 C        -0.833619         2.050550         1.050993
 H         0.339462        -0.637513         1.101695
 H        -2.844658         0.047056        -0.382711
 H        -2.640484         0.265724         1.301460
 H        -2.514362         2.291133        -1.897768
 H        -1.386078         3.675927        -1.361480
 H        -0.888318         0.639360        -1.997090
 H         0.432841         1.678973        -1.421594
 H        -1.485336         2.947472         3.081737
 H        -2.082728         1.279151         2.607845
 H        -0.110935         2.849882         1.015241
