19
Iteration:  4993charge 0 multiplicity 1
 O         0.221246        -0.412927         0.353681
 C        -0.645365         0.703609         0.167068
 C        -2.062397         0.445380         0.199134
 C        -2.067749         2.186684         0.314308
 C        -1.736102         2.607918        -1.084757
 C        -0.510921         1.599348        -1.241168
 O        -2.945667         2.765370         1.330595
 C        -1.828937         2.227690         2.239083
 C        -0.770181         2.053682         1.117988
 H         1.024561        -0.190826         0.829277
 H        -2.545779        -0.097282        -0.602520
 H        -2.308251         0.064356         1.121866
 H        -2.541422         2.428203        -1.794546
 H        -1.360300         3.630286        -1.025845
 H        -0.537058         0.910574        -2.085500
 H         0.494680         2.085855        -1.468672
 H        -1.525572         3.029318         2.952459
 H        -2.233193         1.350801         2.786115
 H        -0.008534         2.897433         0.934628
