19
Iteration:   211charge 0 multiplicity 1
 O         0.433336        -0.277053         0.261055
 C        -0.617399         0.779334         0.183189
 C        -2.191584         0.523748         0.356536
 C        -2.158413         2.059937         0.367764
 C        -2.012523         2.206589        -1.054293
 C        -0.692709         1.244961        -1.238882
 O        -2.710150         2.958959         1.276891
 C        -1.654340         2.510251         2.259272
 C        -0.790922         2.104790         1.024875
 H         0.984525         0.030146         0.988639
 H        -2.661402         0.106867        -0.585821
 H        -2.417108         0.093966         1.343841
 H        -2.878592         1.915172        -1.656832
 H        -1.760560         3.198710        -1.394668
 H        -0.768448         0.463002        -1.940862
 H         0.215590         1.831390        -1.571460
 H        -1.301141         3.324158         2.896395
 H        -2.067975         1.664049         2.762614
 H        -0.077589         2.954859         0.902186
