19
Iteration:  3612charge 0 multiplicity 1
 O         0.348788        -0.289094         0.381770
 C        -0.673744         0.745678         0.195561
 C        -2.244414         0.501442         0.140585
 C        -2.105138         2.086242         0.276565
 C        -1.812092         2.577240        -1.113722
 C        -0.594844         1.494660        -1.325935
 O        -2.817787         2.817286         1.399475
 C        -1.697320         2.285017         2.341174
 C        -0.817896         1.880006         1.094794
 H         1.181697         0.112528         0.685850
 H        -2.625784         0.112163        -0.836174
 H        -2.948123         0.202424         0.958555
 H        -2.566305         2.423986        -1.802077
 H        -1.298725         3.561710        -1.241525
 H        -0.597010         0.763371        -2.057262
 H         0.457058         2.013698        -1.309086
 H        -1.267078         3.141924         2.802945
 H        -2.091217         1.479476         2.997610
 H         0.018590         2.534703         1.132193
