19
Iteration:  3544charge 0 multiplicity 1
 O         0.237449        -0.395493         0.278548
 C        -0.598564         0.729128         0.176153
 C        -2.083408         0.618570         0.222359
 C        -2.090630         2.140772         0.307568
 C        -1.741760         2.494887        -1.181231
 C        -0.598831         1.497431        -1.172836
 O        -2.869997         2.722973         1.403920
 C        -1.825767         2.308598         2.294408
 C        -0.743768         2.076664         1.125439
 H         1.074297        -0.556229        -0.185789
 H        -2.775482         0.131732        -0.621754
 H        -2.562042         0.288951         1.245777
 H        -2.573942         2.299237        -1.813454
 H        -1.599449         3.596107        -1.059813
 H        -0.671000         0.812460        -2.092613
 H         0.433187         2.047404        -1.259850
 H        -1.663413         3.256462         2.889979
 H        -1.968028         1.308097         2.827583
 H         0.034478         2.823377         1.028519
