19
Iteration:  2091charge 0 multiplicity 1
 O         0.347364        -0.288164         0.393118
 C        -0.594446         0.745866         0.212195
 C        -2.202979         0.507579         0.339099
 C        -2.125052         2.134128         0.348643
 C        -1.921177         2.425206        -1.249309
 C        -0.669381         1.324880        -1.307799
 O        -2.774143         2.844667         1.404441
 C        -1.615538         2.372753         2.264122
 C        -0.701059         2.138328         0.966629
 H        -0.082361        -0.704675         1.145875
 H        -2.650223         0.001770        -0.545432
 H        -2.755713         0.281063         1.298056
 H        -2.686627         1.993911        -1.945417
 H        -1.614925         3.410551        -1.566248
 H        -0.910714         0.510405        -1.978834
 H         0.191717         1.908895        -1.649114
 H        -1.457899         3.128094         3.084072
 H        -1.783807         1.449972         2.812954
 H        -0.036583         2.981713         0.838504
