19
Iteration:  4048
 O         0.227647        -0.276616         0.401043
 C        -0.604295         0.801968         0.162287
 C        -2.094739         0.508549         0.180129
 C        -2.095563         2.126336         0.240935
 C        -1.775284         2.553553        -1.078453
 C        -0.664022         1.510661        -1.236574
 O        -2.814099         2.770985         1.348814
 C        -1.712992         2.231657         2.296853
 C        -0.795875         1.985497         1.020802
 H         0.417760        -0.590346         1.298786
 H        -2.511406        -0.023713        -0.718021
 H        -2.412469        -0.094281         1.063616
 H        -2.583860         2.391323        -1.748448
 H        -1.391582         3.621994        -1.274581
 H        -0.840378         0.771789        -2.004436
 H         0.319188         2.014669        -1.541235
 H        -1.245380         2.880212         2.975071
 H        -1.919664         1.328301         2.942433
 H        -0.119860         2.820105         1.110682
