19
Iteration:  1696
 O         0.303023        -0.332550         0.482928
 C        -0.678090         0.683319         0.200224
 C        -2.110862         0.435409         0.363256
 C        -2.140318         2.119531         0.317742
 C        -1.831994         2.501963        -1.199924
 C        -0.585442         1.428725        -1.232373
 O        -2.857720         2.805187         1.367208
 C        -1.629287         2.442454         2.252217
 C        -0.789954         2.094409         0.939585
 H         0.426518        -0.794342        -0.357744
 H        -2.728084        -0.023842        -0.437833
 H        -2.389754         0.021170         1.342375
 H        -2.564427         2.254662        -1.923099
 H        -1.490996         3.610535        -1.343183
 H        -0.930218         0.711738        -1.954626
 H         0.363039         1.848401        -1.661675
 H        -1.391525         3.476829         2.765949
 H        -1.642675         1.613880         2.943400
 H        -0.167412         2.893847         0.486145
