19
Iteration:  4645charge 0 multiplicity 1
 O         0.346642        -0.266938         0.462953
 C        -0.631431         0.705023         0.191013
 C        -2.195645         0.441010         0.290915
 C        -2.111017         2.062243         0.259040
 C        -1.688634         2.614720        -1.101620
 C        -0.641579         1.517767        -1.332509
 O        -2.818445         2.854686         1.358432
 C        -1.764534         2.224497         2.270443
 C        -0.813315         2.009778         1.056120
 H         0.772183        -0.866508        -0.181075
 H        -2.674891        -0.245121        -0.435917
 H        -2.573130         0.087964         1.266377
 H        -2.467825         2.611173        -1.840048
 H        -1.457619         3.692907        -1.041240
 H        -1.005876         0.869248        -2.095756
 H         0.294030         2.021892        -1.799392
 H        -1.438181         3.000666         2.870000
 H        -2.231283         1.373471         2.717414
 H        -0.092979         2.798302         0.943012
