19
Iteration:  2218
 O         0.339468        -0.209239         0.442000
 C        -0.664805         0.735255         0.209366
 C        -2.183196         0.568859         0.437190
 C        -2.154989         2.133165         0.210059
 C        -1.893617         2.414615        -1.214741
 C        -0.665688         1.402971        -1.258533
 O        -2.784601         2.801188         1.385578
 C        -1.591299         2.326168         2.231635
 C        -0.696982         2.038810         0.928172
 H        -0.093549        -1.009532         0.808021
 H        -2.712959         0.130740        -0.351148
 H        -2.584334         0.233650         1.370574
 H        -2.772809         2.141067        -1.809348
 H        -1.608062         3.391446        -1.471676
 H        -0.954957         0.642580        -2.014051
 H         0.165358         1.936372        -1.665569
 H        -1.210195         3.149703         2.735767
 H        -1.587840         1.392371         2.779277
 H         0.113108         2.735006         0.998682
