19
Iteration:   215
 O         0.455994        -0.264125         0.297369
 C        -0.630584         0.772294         0.166262
 C        -2.181026         0.499567         0.391428
 C        -2.164308         2.079405         0.358602
 C        -1.994845         2.229630        -1.070147
 C        -0.723470         1.265199        -1.255251
 O        -2.697791         2.967119         1.264848
 C        -1.645855         2.477211         2.249875
 C        -0.803749         2.097266         1.004578
 H         0.967733        -0.024080         1.103806
 H        -2.699633        -0.017079        -0.484118
 H        -2.511145         0.081988         1.338484
 H        -2.897507         1.912267        -1.673545
 H        -1.767698         3.262843        -1.342222
 H        -0.873551         0.508927        -2.117402
 H         0.167042         1.822942        -1.518045
 H        -1.284204         3.294977         2.937298
 H        -2.089892         1.585959         2.810577
 H         0.009516         2.926527         0.936861
