19
Iteration:  2135charge 0 multiplicity 1
 O         0.379352        -0.234840         0.173685
 C        -0.721959         0.734643         0.249179
 C        -2.305485         0.514480         0.497835
 C        -2.115197         2.011242         0.254747
 C        -1.818088         2.381070        -1.165650
 C        -0.675658         1.410112        -1.260292
 O        -2.740634         2.863437         1.243230
 C        -1.703968         2.475680         2.248892
 C        -0.659417         1.980183         1.139033
 H         0.694594        -0.630606         0.989780
 H        -2.801753        -0.200907        -0.239050
 H        -2.389973         0.364766         1.609290
 H        -2.769712         2.093399        -1.693123
 H        -1.578208         3.463642        -1.235915
 H        -0.850444         0.649456        -1.999648
 H         0.308378         1.948515        -1.256494
 H        -1.305892         3.292778         3.022148
 H        -2.053775         1.721285         2.977034
 H        -0.052619         2.799108         0.713297
