19
Iteration:  2936
 O         0.216357        -0.323582         0.419802
 C        -0.698115         0.714036         0.116303
 C        -2.170785         0.534935         0.243896
 C        -2.089175         2.102565         0.291195
 C        -1.859894         2.383123        -1.134373
 C        -0.583791         1.485936        -1.300174
 O        -2.780259         2.729564         1.411538
 C        -1.562603         2.429511         2.314748
 C        -0.806566         2.033900         0.993764
 H         0.926522         0.190349         0.825922
 H        -2.939889         0.269995        -0.521072
 H        -2.364939         0.022914         1.143412
 H        -2.682573         1.999216        -1.663556
 H        -1.722862         3.468780        -1.287751
 H        -0.684847         0.803179        -2.162603
 H         0.352230         2.059971        -1.299388
 H        -1.236657         3.399669         2.567258
 H        -1.804694         1.799861         3.190527
 H        -0.152327         2.916830         0.740043
