19
Iteration:  4557charge 0 multiplicity 1
 O         0.315559        -0.289407         0.278606
 C        -0.644491         0.689440         0.137257
 C        -2.172980         0.507626         0.361873
 C        -2.150600         2.036598         0.332633
 C        -1.713540         2.601942        -0.988230
 C        -0.572267         1.535614        -1.244530
 O        -2.832309         2.740034         1.249632
 C        -1.755589         2.357870         2.232923
 C        -0.762853         2.037267         1.074250
 H        -0.176191        -1.086850         0.599130
 H        -2.695343         0.010283        -0.457419
 H        -2.236945        -0.103353         1.338450
 H        -2.442345         2.513481        -1.833076
 H        -1.553775         3.681249        -1.008650
 H        -0.761155         0.802590        -2.004456
 H         0.461289         2.013686        -1.576384
 H        -1.491594         3.150601         2.949993
 H        -2.146948         1.458248         2.776168
 H         0.001075         2.800858         1.022471
