19
Iteration:  1438
 O         0.260194        -0.277503         0.421302
 C        -0.547310         0.787508         0.240313
 C        -2.110794         0.519218         0.395537
 C        -2.125825         2.093768         0.277432
 C        -1.843314         2.495813        -1.230469
 C        -0.632635         1.449376        -1.291096
 O        -2.857631         2.665552         1.345253
 C        -1.682472         2.492885         2.244450
 C        -0.735541         1.998926         1.014659
 H        -0.228753        -1.100178         0.178400
 H        -2.564124         0.109101        -0.505187
 H        -2.414516         0.151718         1.410741
 H        -2.643479         2.331269        -2.001723
 H        -1.317373         3.385732        -1.218333
 H        -0.710113         0.593078        -1.999303
 H         0.231715         2.041107        -1.582516
 H        -1.411490         3.421333         2.635016
 H        -1.953503         1.775912         3.144713
 H         0.125258         2.677373         1.004303
