19
Iteration:  1659
 O         0.285532        -0.126256         0.564427
 C        -0.680998         0.700843         0.180340
 C        -2.245036         0.526798         0.272826
 C        -2.098059         2.145559         0.271519
 C        -1.806306         2.495970        -1.230475
 C        -0.653705         1.419242        -1.274679
 O        -2.829867         2.663848         1.396524
 C        -1.556361         2.396513         2.226489
 C        -0.723194         1.995425         0.968871
 H         0.223688        -1.076730         0.302226
 H        -2.717658         0.015108        -0.605404
 H        -2.618623         0.056285         1.232204
 H        -2.710784         2.150154        -1.906158
 H        -1.648290         3.624761        -1.404370
 H        -0.941795         0.467618        -1.865472
 H         0.355187         1.752361        -1.595423
 H        -1.283715         3.448479         2.442200
 H        -1.516285         1.750440         3.224026
 H         0.151032         2.696742         0.967935
