19
Iteration:  4683
 O         0.339514        -0.231597         0.262549
 C        -0.666744         0.764224         0.198400
 C        -2.274364         0.538922         0.278693
 C        -2.105542         2.136842         0.276105
 C        -1.655822         2.457999        -1.142182
 C        -0.512767         1.482898        -1.171655
 O        -2.886677         2.752938         1.344048
 C        -1.764839         2.344124         2.288576
 C        -0.797136         1.955129         1.161650
 H         0.526262        -0.520199        -0.666054
 H        -2.768063         0.130408        -0.640742
 H        -2.795886         0.237237         1.222279
 H        -2.528918         2.047841        -1.744991
 H        -1.430198         3.514823        -1.316901
 H        -0.797316         0.691333        -1.968967
 H         0.491982         1.736271        -1.301254
 H        -1.287739         3.185407         2.904464
 H        -2.058327         1.562686         3.067193
 H         0.147332         2.559902         1.205029
