19
Iteration:  3126charge 0 multiplicity 1
 O         0.322078        -0.245847         0.290991
 C        -0.697463         0.644244         0.102841
 C        -2.196938         0.426340         0.324355
 C        -2.088991         2.049305         0.299946
 C        -1.757617         2.524830        -1.089735
 C        -0.679482         1.495819        -1.306883
 O        -2.791609         2.883689         1.317810
 C        -1.716691         2.315800         2.318781
 C        -0.775226         1.955226         1.065436
 H         0.776979         0.140236         1.070372
 H        -2.891513        -0.073795        -0.274097
 H        -2.340906         0.010664         1.427986
 H        -2.650964         2.604104        -1.872340
 H        -1.432641         3.551420        -0.965459
 H        -0.666801         0.958951        -2.274822
 H         0.344828         1.947612        -1.086127
 H        -1.131471         3.147641         2.818381
 H        -2.207790         1.574278         2.965181
 H         0.078127         2.635688         0.999467
