19
Iteration:  4278
 O         0.288713        -0.271700         0.222039
 C        -0.680429         0.747886         0.140414
 C        -2.232328         0.544607         0.309028
 C        -2.082122         2.059707         0.358851
 C        -1.783980         2.470416        -1.150289
 C        -0.554866         1.538524        -1.181977
 O        -2.788219         2.843043         1.282424
 C        -1.772634         2.292947         2.275059
 C        -0.728866         1.908852         1.148998
 H         0.494145        -0.475278         1.158996
 H        -2.739518         0.171530        -0.548005
 H        -2.610304         0.150382         1.301407
 H        -2.491700         2.241471        -1.925130
 H        -1.457686         3.460463        -1.337065
 H        -0.584099         0.879275        -2.112778
 H         0.429980         2.041459        -1.398405
 H        -1.495185         3.109065         2.940855
 H        -2.240843         1.579447         3.002488
 H         0.129138         2.590761         1.173825
