19
Iteration:  4112
 O         0.282494        -0.294374         0.190869
 C        -0.605499         0.739116         0.228461
 C        -2.201482         0.460757         0.236115
 C        -2.133225         2.010909         0.337772
 C        -1.740468         2.502604        -1.080863
 C        -0.541618         1.509072        -1.207450
 O        -2.815865         2.837578         1.349126
 C        -1.799769         2.375075         2.258093
 C        -0.770128         2.064871         1.133218
 H        -0.014019        -0.928743         0.875213
 H        -2.475891        -0.047881        -0.704665
 H        -2.428378        -0.116886         1.123650
 H        -2.493317         2.298399        -1.755102
 H        -1.472323         3.587525        -1.197914
 H        -0.547153         0.837685        -2.100504
 H         0.476711         2.102573        -1.381273
 H        -1.501047         3.131064         2.949953
 H        -2.157526         1.435094         2.883101
 H         0.071606         2.711159         0.937013
