19
Iteration:  1524
 O         0.271200        -0.276047         0.577429
 C        -0.593322         0.739819         0.178114
 C        -2.106755         0.554981         0.330734
 C        -2.121630         2.170647         0.257323
 C        -1.854642         2.420190        -1.162064
 C        -0.696256         1.389038        -1.310738
 O        -2.889460         2.755102         1.416981
 C        -1.608380         2.334159         2.142241
 C        -0.728832         2.120118         0.977894
 H         0.690476        -0.776802        -0.155471
 H        -2.718899         0.042337        -0.385882
 H        -2.542142         0.268374         1.307513
 H        -2.616874         2.333137        -1.995569
 H        -1.349668         3.396797        -1.237106
 H        -0.825022         0.623833        -2.066591
 H         0.279016         1.879437        -1.498204
 H        -1.175587         3.101199         2.711193
 H        -1.947006         1.436959         2.718199
 H         0.030290         2.929989         0.879120
