19
Iteration:  4956charge 0 multiplicity 1
 O         0.164538        -0.388867         0.236883
 C        -0.670284         0.768053         0.218071
 C        -2.155494         0.502878         0.193188
 C        -2.095711         2.124178         0.316540
 C        -1.706130         2.466433        -1.096087
 C        -0.401127         1.652492        -1.120670
 O        -2.903589         2.706794         1.317414
 C        -1.783950         2.325493         2.264948
 C        -0.777928         2.039895         1.176746
 H         0.963103        -0.061277        -0.230725
 H        -2.535592         0.054794        -0.737223
 H        -2.535182        -0.111083         1.117703
 H        -2.449098         1.982203        -1.785440
 H        -1.765418         3.502075        -1.463906
 H        -0.219192         0.807610        -1.880770
 H         0.428990         2.265940        -0.894665
 H        -1.495867         3.284062         2.785861
 H        -2.133838         1.552798         2.949504
 H         0.063718         2.722772         0.977418
