19
Iteration:   547
 O         0.212551        -0.289580         0.493854
 C        -0.653502         0.756286         0.145531
 C        -2.130035         0.557108         0.432235
 C        -2.176459         2.071157         0.302537
 C        -1.958614         2.248284        -1.201670
 C        -0.613895         1.306735        -1.285613
 O        -2.757129         2.827536         1.464300
 C        -1.493031         2.488219         2.146640
 C        -0.796763         2.185503         0.824347
 H         0.951747         0.109943         0.989843
 H        -2.662895        -0.021070        -0.272986
 H        -2.165418         0.126387         1.403235
 H        -2.758260         1.864479        -1.838856
 H        -1.689538         3.301655        -1.418193
 H        -0.973072         0.536443        -2.004011
 H         0.360693         1.824564        -1.574186
 H        -1.208030         3.326541         2.916700
 H        -1.559086         1.495573         2.660901
 H        -0.300793         3.113993         0.580070
