19
Iteration:  2667
 O         0.196142        -0.343272         0.396958
 C        -0.603652         0.788887         0.088723
 C        -2.088930         0.546489         0.389323
 C        -2.158384         2.093579         0.311889
 C        -1.909559         2.309289        -1.149855
 C        -0.633766         1.381481        -1.312417
 O        -2.823223         2.753399         1.472034
 C        -1.548984         2.456862         2.263874
 C        -0.723172         2.263851         0.955304
 H        -0.318411        -1.138572         0.132169
 H        -2.677639         0.054431        -0.539486
 H        -2.143354         0.268038         1.418699
 H        -2.535467         1.734332        -1.896954
 H        -1.683372         3.302066        -1.568565
 H        -0.747888         0.733530        -2.130071
 H         0.228010         2.119980        -1.496405
 H        -1.160503         3.334568         2.897585
 H        -1.573062         1.573136         2.934503
 H         0.059482         3.019394         0.927672
