19
Iteration:  3422charge 0 multiplicity 1
 O         0.216730        -0.401966         0.274415
 C        -0.621282         0.717248         0.130109
 C        -2.171072         0.479157         0.235299
 C        -2.192015         2.083805         0.328818
 C        -1.775867         2.513941        -1.053357
 C        -0.468969         1.538823        -1.135698
 O        -2.856260         2.816921         1.424057
 C        -1.708271         2.392596         2.241385
 C        -0.829985         1.994905         1.004243
 H         1.167004        -0.195394         0.223373
 H        -2.673887        -0.205835        -0.653281
 H        -2.410489        -0.142153         1.112214
 H        -2.469754         2.278108        -1.902019
 H        -1.447200         3.527389        -1.088230
 H        -0.196827         1.141994        -2.189260
 H         0.300595         2.311095        -1.018011
 H        -1.381419         3.321596         2.846763
 H        -1.839441         1.452899         2.855115
 H        -0.199490         2.864068         0.768826
