19
Iteration:  3842charge 0 multiplicity 1
 O         0.243051        -0.487199         0.264878
 C        -0.565571         0.761165         0.191445
 C        -2.117021         0.640934         0.198319
 C        -2.105143         2.152790         0.308117
 C        -1.795765         2.548696        -1.106328
 C        -0.557257         1.456577        -1.168942
 O        -2.899548         2.672596         1.357142
 C        -1.689164         2.376618         2.312944
 C        -0.799456         2.061175         1.075618
 H         1.109980        -0.325220         0.686856
 H        -2.618129         0.152421        -0.685461
 H        -2.700518         0.216765         1.009762
 H        -2.661411         2.400140        -1.706306
 H        -1.523517         3.614239        -1.187611
 H        -0.854850         0.757004        -1.885215
 H         0.347138         1.953426        -1.530021
 H        -1.476158         3.394780         2.705548
 H        -1.916239         1.562062         3.009903
 H        -0.233300         2.965519         1.032188
