19
Iteration:  2072
 O         0.227064        -0.163393         0.455308
 C        -0.706131         0.765494         0.211609
 C        -2.189942         0.652770         0.317042
 C        -2.120329         2.116198         0.264854
 C        -1.837388         2.394548        -1.207422
 C        -0.682555         1.365919        -1.261072
 O        -2.785816         2.664163         1.423537
 C        -1.511913         2.351629         2.159749
 C        -0.720722         2.033707         0.942613
 H        -0.009447        -0.733331         1.208813
 H        -2.695676        -0.155284        -0.378522
 H        -2.164093         0.383757         1.414747
 H        -2.758437         2.144246        -1.736396
 H        -1.432183         3.451601        -1.355386
 H        -0.842364         0.640478        -2.065931
 H         0.328300         1.871989        -1.330157
 H        -1.206107         3.334743         2.551719
 H        -1.674708         1.692924         3.011723
 H         0.039709         2.839617         0.625752
