19
Iteration:   660
 O         0.312211        -0.149752         0.666177
 C        -0.583546         0.745680         0.242528
 C        -2.154355         0.627090         0.358074
 C        -2.092285         2.120426         0.208269
 C        -2.024080         2.308507        -1.172052
 C        -0.823177         1.364442        -1.309268
 O        -2.703468         2.689944         1.338661
 C        -1.553042         2.393981         2.102581
 C        -0.697544         2.071692         0.917067
 H         0.045350        -0.936427         0.184048
 H        -2.735244         0.034706        -0.369402
 H        -2.397692         0.402236         1.420247
 H        -3.050250         2.000555        -1.603321
 H        -1.733481         3.288478        -1.483749
 H        -0.618134         0.613371        -2.131688
 H         0.141596         1.986630        -1.358100
 H        -1.178042         3.471179         2.506417
 H        -1.713689         1.725619         3.016423
 H         0.061101         2.835920         0.720895
