19
Iteration:  4036
 O         0.241046        -0.261019         0.324401
 C        -0.702256         0.797079         0.223401
 C        -2.133684         0.393094         0.221315
 C        -2.117337         2.178627         0.330855
 C        -1.756683         2.520232        -1.166624
 C        -0.607853         1.502749        -1.254358
 O        -2.739907         2.815971         1.385046
 C        -1.728156         2.169494         2.249947
 C        -0.790564         2.061069         1.089979
 H         0.590980        -0.194269         1.230097
 H        -2.395868        -0.144787        -0.730210
 H        -2.501779        -0.047604         1.134686
 H        -2.530130         2.373477        -1.844350
 H        -1.363150         3.595021        -1.223189
 H        -0.808234         0.739165        -2.023843
 H         0.417688         2.027804        -1.411230
 H        -1.550965         2.861235         2.983592
 H        -2.275472         1.236423         2.571712
 H        -0.143807         2.854411         0.764707
