19
Iteration:  2602charge 0 multiplicity 1
 O         0.399281        -0.146659         0.445343
 C        -0.627777         0.718944         0.148378
 C        -2.168966         0.502529         0.409048
 C        -2.188339         2.063646         0.271261
 C        -1.873000         2.441439        -1.135565
 C        -0.810286         1.235338        -1.320485
 O        -2.673287         2.946484         1.403517
 C        -1.653693         2.353203         2.234861
 C        -0.778161         2.005423         0.971301
 H         0.696109        -0.612031        -0.348465
 H        -2.766929        -0.103912        -0.379023
 H        -2.514156         0.255826         1.419962
 H        -2.729851         2.330781        -1.838675
 H        -1.550046         3.480437        -1.049334
 H        -1.195109         0.506261        -2.007766
 H         0.117868         1.728963        -1.825065
 H        -1.215724         3.199028         2.872702
 H        -1.957028         1.518806         2.879914
 H         0.127067         2.706290         0.893643
