19
Iteration:  4573charge 0 multiplicity 1
 O         0.270348        -0.281381         0.356790
 C        -0.643189         0.781169         0.155566
 C        -2.132275         0.499611         0.241101
 C        -2.076145         2.116730         0.277577
 C        -1.762637         2.481634        -1.129344
 C        -0.525372         1.543593        -1.249869
 O        -2.914249         2.741028         1.436319
 C        -1.711494         2.314153         2.264389
 C        -0.752977         1.982240         1.061928
 H        -0.243763        -1.103801         0.422582
 H        -2.733012        -0.071182        -0.506351
 H        -2.588666         0.262959         1.159442
 H        -2.560533         2.473314        -1.942367
 H        -1.323017         3.530757        -1.123621
 H        -0.562525         0.947330        -2.207980
 H         0.392235         2.033694        -1.173910
 H        -1.349015         3.277989         2.679014
 H        -1.926298         1.450219         2.930345
 H        -0.133676         2.859082         0.758703
