19
Iteration:  3284charge 0 multiplicity 1
 O         0.157927        -0.352751         0.165858
 C        -0.588855         0.833042         0.204866
 C        -2.168569         0.499642         0.229934
 C        -2.091178         2.103367         0.305491
 C        -1.755512         2.465349        -1.119627
 C        -0.584770         1.481354        -1.186128
 O        -2.871067         2.741095         1.369656
 C        -1.715052         2.354504         2.281419
 C        -0.715003         2.054185         1.151403
 H         0.758295        -0.301106         0.941716
 H        -2.608390        -0.096601        -0.613339
 H        -2.641971         0.148333         1.191681
 H        -2.463794         2.297385        -1.953902
 H        -1.417388         3.595215        -1.040146
 H        -0.465167         0.699356        -1.920412
 H         0.337863         2.106952        -1.184230
 H        -1.400631         3.219780         2.833362
 H        -1.974946         1.491914         2.877507
 H         0.123902         2.769253         1.021026
