19
Iteration:   363charge 0 multiplicity 1
 O         0.415199        -0.099803         0.487744
 C        -0.650791         0.700679         0.157592
 C        -2.190132         0.593749         0.412635
 C        -2.111974         2.141999         0.319837
 C        -1.962158         2.283834        -1.250813
 C        -0.814344         1.137844        -1.329937
 O        -2.824315         2.854110         1.387455
 C        -1.549083         2.494711         2.320432
 C        -0.638738         2.050812         0.942667
 H         0.719743        -0.583592        -0.309127
 H        -2.614878         0.029766        -0.501747
 H        -2.553142         0.200753         1.380267
 H        -2.891233         1.948481        -1.815526
 H        -1.581198         3.295642        -1.493216
 H        -1.214792         0.240565        -1.749671
 H         0.078695         1.605015        -1.844856
 H        -1.160129         3.437822         2.844911
 H        -1.881812         1.724684         3.024189
 H         0.074935         2.843512         0.740699
