19
Iteration:  1062charge 0 multiplicity 1
 O         0.342398        -0.216163         0.318987
 C        -0.646558         0.783002         0.242199
 C        -2.154259         0.550887         0.317022
 C        -2.140529         2.143895         0.248781
 C        -1.768012         2.376046        -1.184481
 C        -0.580326         1.326974        -1.296188
 O        -2.889751         2.741370         1.472745
 C        -1.710736         2.429485         2.211280
 C        -0.774387         2.060507         1.013648
 H         0.299182        -0.549025         1.237317
 H        -2.652290         0.099503        -0.529923
 H        -2.567307         0.097923         1.196016
 H        -2.552550         2.129230        -1.937169
 H        -1.419532         3.377600        -1.276443
 H        -0.798022         0.555161        -1.994991
 H         0.383165         1.736000        -1.592853
 H        -1.355413         3.320610         2.851631
 H        -1.909117         1.591868         2.906405
 H         0.045367         2.836779         0.980950
