19
Iteration:  3863charge 0 multiplicity 1
 O         0.187094        -0.290687         0.284195
 C        -0.698128         0.765955         0.185386
 C        -2.135465         0.508236         0.329620
 C        -2.059678         2.101979         0.316250
 C        -1.714612         2.528319        -1.104158
 C        -0.608052         1.455122        -1.253232
 O        -2.837200         2.730028         1.338613
 C        -1.794720         2.328381         2.249395
 C        -0.692043         2.023346         1.085410
 H         1.115408        -0.008278         0.230221
 H        -2.724025        -0.026273        -0.470210
 H        -2.495507         0.102932         1.277846
 H        -2.418631         2.486040        -1.904015
 H        -1.342395         3.614849        -1.043219
 H        -0.771155         0.830091        -2.068736
 H         0.392290         1.870404        -1.301909
 H        -1.554807         3.107046         2.980071
 H        -2.036140         1.346183         2.698818
 H         0.080200         2.752554         1.068065
