19
Iteration:  2662
 O         0.213798        -0.353303         0.371124
 C        -0.605542         0.825873         0.164492
 C        -2.106667         0.497300         0.390483
 C        -2.177638         2.107333         0.338268
 C        -1.862857         2.338057        -1.195170
 C        -0.633024         1.396010        -1.287510
 O        -2.842450         2.776851         1.462922
 C        -1.511784         2.458646         2.247213
 C        -0.742261         2.208842         0.939049
 H        -0.321120        -1.089148         0.034080
 H        -2.546247         0.167792        -0.455076
 H        -2.201499         0.091070         1.450174
 H        -2.615089         1.763387        -1.764322
 H        -1.794799         3.377178        -1.577738
 H        -0.777925         0.587630        -2.109360
 H         0.160435         2.046715        -1.487365
 H        -1.304932         3.331271         2.798668
 H        -1.428650         1.566184         2.913297
 H        -0.015268         3.045609         0.835908
