19
Iteration:  2970
 O         0.235189        -0.347953         0.439185
 C        -0.640256         0.812045         0.252950
 C        -2.048505         0.519295         0.403927
 C        -2.112441         2.113369         0.244469
 C        -1.817079         2.544344        -1.181633
 C        -0.781043         1.386519        -1.298604
 O        -2.743372         2.763437         1.336724
 C        -1.670080         2.231857         2.257423
 C        -0.803356         2.162855         0.988369
 H         1.112824        -0.139100         0.073225
 H        -2.575653        -0.056125        -0.411549
 H        -2.359972         0.254690         1.309497
 H        -2.650144         2.525600        -1.837317
 H        -1.500643         3.623238        -1.253130
 H        -0.986987         0.549848        -1.942526
 H         0.196552         1.817105        -1.675383
 H        -1.226613         2.910718         2.935582
 H        -1.925842         1.349338         2.834325
 H        -0.064617         2.916513         0.693334
