19
Iteration:   348charge 0 multiplicity 1
 O         0.442930        -0.183536         0.370934
 C        -0.630547         0.791459         0.247281
 C        -2.144691         0.408281         0.434561
 C        -2.100340         2.129243         0.297124
 C        -1.970925         2.253196        -1.202288
 C        -0.810471         1.213951        -1.304030
 O        -2.670566         2.949152         1.392040
 C        -1.677513         2.524637         2.225430
 C        -0.801628         2.105911         1.039244
 H         0.397951        -0.807980        -0.395249
 H        -2.662384        -0.035880        -0.338819
 H        -2.309982         0.153645         1.484586
 H        -2.830614         1.923124        -1.706091
 H        -1.713395         3.252169        -1.679892
 H        -1.065591         0.357491        -1.982606
 H         0.152341         1.576452        -1.719721
 H        -1.276588         3.403579         2.684895
 H        -1.993897         1.672805         2.912987
 H         0.006033         2.793080         0.832129
