19
Iteration:  3116
 O         0.349795        -0.184737         0.319117
 C        -0.749310         0.660121         0.058558
 C        -2.290266         0.457540         0.336577
 C        -2.100026         2.115190         0.375473
 C        -1.776489         2.510574        -1.047457
 C        -0.574191         1.462923        -1.332910
 O        -2.755750         2.834226         1.403285
 C        -1.737616         2.299514         2.212273
 C        -0.744724         1.931499         0.998089
 H         0.658453        -0.071583         1.243797
 H        -2.794515        -0.042912        -0.443514
 H        -2.587476         0.099354         1.395745
 H        -2.645773         2.388953        -1.821156
 H        -1.299466         3.474252        -1.047626
 H        -0.606262         0.753552        -2.185066
 H         0.462169         1.880837        -1.306952
 H        -1.459180         3.209306         2.803201
 H        -2.036408         1.543801         2.907055
 H        -0.105351         2.768942         0.819926
