19
Iteration:   294
 O         0.312348        -0.285742         0.386011
 C        -0.641979         0.755188         0.203695
 C        -2.083089         0.487832         0.413664
 C        -2.111586         2.064263         0.287555
 C        -2.025625         2.282268        -1.241788
 C        -0.679002         1.405582        -1.272421
 O        -2.800235         2.734001         1.407566
 C        -1.514064         2.660481         2.267126
 C        -0.745800         2.092866         0.950987
 H        -0.111949        -1.172928         0.355673
 H        -2.572283        -0.172317        -0.240906
 H        -2.393474         0.315515         1.474329
 H        -2.760484         1.795627        -1.829974
 H        -1.755497         3.344810        -1.600984
 H        -0.811597         0.605733        -2.036262
 H         0.227720         2.021876        -1.364370
 H        -1.198188         3.693540         2.420186
 H        -1.719496         2.190632         3.305692
 H        -0.061374         2.868891         0.654338
