19
Iteration:  3772
 O         0.295784        -0.313830         0.415160
 C        -0.620687         0.774054         0.159742
 C        -2.130816         0.511764         0.206945
 C        -2.044749         2.221157         0.266422
 C        -1.793430         2.548014        -1.184056
 C        -0.701554         1.427705        -1.304600
 O        -2.786008         2.817903         1.416317
 C        -1.787274         2.164751         2.349074
 C        -0.817723         2.032157         1.105158
 H         1.234905        -0.050203         0.389406
 H        -2.604695         0.022786        -0.645178
 H        -2.641100        -0.049420         1.025129
 H        -2.590418         2.482906        -2.000511
 H        -1.192551         3.523521        -1.406807
 H        -0.730874         0.650672        -2.138505
 H         0.250865         1.923469        -1.397899
 H        -1.447378         2.866504         3.081855
 H        -2.257112         1.226787         2.703780
 H        -0.008085         2.829174         1.045589
