19
Iteration:  4759
 O         0.381390        -0.180341         0.501464
 C        -0.713112         0.697644         0.202377
 C        -2.229971         0.587424         0.122294
 C        -2.132623         2.293885         0.264155
 C        -1.688285         2.608465        -1.146714
 C        -0.567035         1.453603        -1.223214
 O        -2.845945         2.673922         1.386716
 C        -1.711402         2.161187         2.283956
 C        -0.802057         1.980841         1.027125
 H         0.101847        -1.117121         0.422130
 H        -2.766896         0.017420        -0.626053
 H        -2.596215         0.092058         1.005064
 H        -2.489876         2.307791        -1.847715
 H        -1.404516         3.644329        -1.293457
 H        -0.922490         0.758899        -2.080087
 H         0.376632         1.781715        -1.539191
 H        -1.366061         2.980661         2.887215
 H        -1.971456         1.222536         2.775028
 H         0.028517         2.671761         0.872560
