19
Iteration:  4965
 O         0.141059        -0.387039         0.269781
 C        -0.598972         0.722319         0.205681
 C        -2.119520         0.570293         0.199215
 C        -2.048512         2.095636         0.282474
 C        -1.770816         2.437235        -1.132101
 C        -0.424044         1.734483        -1.133093
 O        -2.872775         2.676312         1.314981
 C        -1.867196         2.353960         2.285280
 C        -0.753208         1.959061         1.159308
 H         1.086742        -0.329062         0.021420
 H        -2.753883         0.019961        -0.560336
 H        -2.495480         0.290909         1.263266
 H        -2.489536         2.052573        -1.882724
 H        -1.559379         3.516985        -1.125724
 H        -0.341188         1.051086        -2.033490
 H         0.459468         2.348390        -1.231737
 H        -1.511370         3.176241         2.876592
 H        -2.244823         1.680482         3.112423
 H        -0.044911         2.723831         0.938921
