19
Iteration:  2755
 O         0.312441        -0.277954         0.231338
 C        -0.603788         0.732831         0.202554
 C        -2.138887         0.577747         0.449704
 C        -2.104142         2.097525         0.306541
 C        -1.877206         2.457429        -1.186965
 C        -0.726749         1.293579        -1.279619
 O        -2.799259         2.830551         1.397313
 C        -1.707033         2.440279         2.227403
 C        -0.737105         2.009325         1.029588
 H         0.776967        -0.254205         1.101522
 H        -2.798667         0.025474        -0.299363
 H        -2.199918         0.343106         1.450841
 H        -2.710914         2.194082        -1.851623
 H        -1.370341         3.374916        -1.433584
 H        -0.863889         0.443481        -1.880582
 H         0.249581         1.819269        -1.523645
 H        -1.250680         3.300624         2.847545
 H        -2.008206         1.654691         2.933144
 H         0.119799         2.599226         0.738525
