19
Iteration:  4594charge 0 multiplicity 1
 O         0.292840        -0.297829         0.452078
 C        -0.677385         0.857532         0.182250
 C        -2.206510         0.616841         0.144845
 C        -2.175261         2.149930         0.284848
 C        -1.786969         2.501469        -1.285942
 C        -0.487026         1.508963        -1.187261
 O        -2.799173         2.618433         1.471943
 C        -1.612661         2.316494         2.321013
 C        -0.835050         2.044703         1.043954
 H        -0.088139        -1.187161         0.274947
 H        -2.710358         0.269080        -0.834941
 H        -2.664128         0.011668         0.895775
 H        -2.666153         1.981112        -1.802755
 H        -1.608878         3.607204        -1.590427
 H        -0.607703         0.773183        -2.044345
 H         0.486573         1.980838        -1.204723
 H        -1.317433         3.158514         2.971694
 H        -1.995541         1.311822         2.813823
 H         0.066267         2.662790         0.840619
