19
Iteration:  3963
 O         0.283416        -0.381748         0.283240
 C        -0.597673         0.815486         0.130430
 C        -2.160912         0.475170         0.267284
 C        -2.139638         2.041432         0.270346
 C        -1.709752         2.536642        -1.029626
 C        -0.521962         1.542171        -1.206042
 O        -2.897322         2.737211         1.379945
 C        -1.674283         2.299493         2.238708
 C        -0.838367         2.136740         1.055457
 H        -0.105204        -0.924943         1.001817
 H        -2.634340         0.036085        -0.652068
 H        -2.593233         0.005144         1.207048
 H        -2.449183         2.398066        -1.873420
 H        -1.338864         3.605169        -0.971896
 H        -0.816617         0.885729        -1.981789
 H         0.361674         2.040595        -1.451728
 H        -1.464408         3.319123         2.724072
 H        -1.917017         1.501330         2.913577
 H        -0.088435         2.922516         0.888874
