19
Iteration:  4391charge 0 multiplicity 1
 O         0.289811        -0.311340         0.238600
 C        -0.684399         0.730028         0.092678
 C        -2.140051         0.454605         0.248358
 C        -2.142693         2.049745         0.337083
 C        -1.780052         2.433758        -1.016261
 C        -0.547637         1.550814        -1.246659
 O        -2.745827         2.940345         1.341468
 C        -1.818126         2.328858         2.247970
 C        -0.782804         1.968433         1.134762
 H         0.521131        -0.511938         1.173341
 H        -2.818800         0.071351        -0.559895
 H        -2.206605        -0.064786         1.199310
 H        -2.642411         2.422526        -1.728092
 H        -1.495435         3.408802        -1.153162
 H        -0.564928         0.749325        -2.052447
 H         0.524807         1.891076        -1.268351
 H        -1.518349         3.144233         3.052166
 H        -2.306217         1.477298         2.690615
 H        -0.028227         2.801852         0.919860
