19
Iteration:  3498
 O         0.309470        -0.260290         0.477852
 C        -0.672761         0.722314         0.104140
 C        -2.193636         0.504951         0.232323
 C        -2.169222         2.061313         0.222042
 C        -1.723516         2.567035        -1.112766
 C        -0.587381         1.492259        -1.343033
 O        -2.763664         2.860155         1.490705
 C        -1.766566         2.224288         2.278374
 C        -0.866550         1.941501         1.031108
 H         1.070261         0.177068         0.040444
 H        -2.860405        -0.046404        -0.619489
 H        -2.430364        -0.002349         1.207702
 H        -2.458979         2.762277        -1.962573
 H        -1.026956         3.344740        -1.005813
 H        -0.636472         0.613755        -2.191233
 H         0.391822         2.003069        -1.417338
 H        -1.133365         2.883744         3.001986
 H        -2.263194         1.303309         2.694039
 H        -0.216916         2.843788         0.955536
