19
Iteration:   842
 O         0.422048        -0.188405         0.334071
 C        -0.590896         0.789117         0.268898
 C        -2.126628         0.478780         0.415855
 C        -2.189691         2.015125         0.247162
 C        -1.828299         2.393272        -1.175247
 C        -0.733765         1.324614        -1.236900
 O        -2.784519         2.915638         1.364570
 C        -1.676812         2.383685         2.209221
 C        -0.813791         2.087100         1.003344
 H         0.053081        -0.866308         0.955380
 H        -2.546233        -0.083072        -0.405569
 H        -2.525361         0.006329         1.343523
 H        -2.568236         2.193679        -2.081785
 H        -1.425218         3.387087        -1.257969
 H        -1.073036         0.444004        -1.861338
 H         0.263348         1.488391        -1.672759
 H        -1.251100         3.274546         2.810445
 H        -1.966503         1.493768         2.764808
 H        -0.216582         3.022934         0.578130
