19
Iteration:  2422
 O         0.248143        -0.297804         0.336411
 C        -0.657934         0.691972         0.143032
 C        -2.183019         0.486248         0.376786
 C        -2.152030         2.061016         0.324371
 C        -1.907186         2.389682        -1.142726
 C        -0.592986         1.536938        -1.293147
 O        -2.787968         2.795266         1.361699
 C        -1.500863         2.470728         2.253038
 C        -0.805079         2.012783         0.970537
 H         0.400885        -0.301888         1.319322
 H        -2.802089        -0.295686        -0.213048
 H        -2.412430         0.322153         1.469619
 H        -2.752998         2.070668        -1.799049
 H        -1.709028         3.442504        -1.505077
 H        -0.781876         0.712474        -2.036233
 H         0.272617         2.124172        -1.480113
 H        -0.836774         3.236388         2.660006
 H        -1.671707         1.818780         3.160792
 H        -0.063182         2.761843         0.801934
