19
Iteration:  1404charge 0 multiplicity 1
 O         0.295071        -0.228945         0.508533
 C        -0.630266         0.765588         0.183616
 C        -2.209778         0.576174         0.282290
 C        -2.155214         2.089648         0.330399
 C        -1.775849         2.362137        -1.174624
 C        -0.571387         1.419952        -1.270489
 O        -2.831603         2.679674         1.420798
 C        -1.597120         2.412569         2.250439
 C        -0.783404         2.125093         0.906787
 H        -0.208551        -1.033818         0.261403
 H        -2.730451         0.317154        -0.619442
 H        -2.783080         0.051472         1.068887
 H        -2.522984         2.266998        -1.985403
 H        -1.426644         3.395100        -1.349776
 H        -0.638404         0.690614        -2.046018
 H         0.284620         2.099642        -1.497566
 H        -1.364137         3.206689         2.877691
 H        -1.830275         1.444414         2.829772
 H        -0.095501         2.981974         0.639700
