19
Iteration:  3348charge 0 multiplicity 1
 O         0.171682        -0.272440         0.370133
 C        -0.651979         0.813705         0.153779
 C        -2.135785         0.500370         0.235591
 C        -2.097152         2.164743         0.262583
 C        -1.694325         2.562336        -1.174197
 C        -0.610727         1.417778        -1.201350
 O        -2.791838         2.728398         1.453487
 C        -1.751162         2.181389         2.244205
 C        -0.800353         2.092806         1.049719
 H         1.084008        -0.180096         0.058381
 H        -2.487539         0.008629        -0.693672
 H        -2.540340         0.382384         1.199033
 H        -2.541404         2.278879        -1.830580
 H        -1.265992         3.608911        -1.183410
 H        -0.912362         0.645178        -1.928332
 H         0.384617         1.818485        -1.476800
 H        -1.377994         2.818700         3.070247
 H        -2.052087         1.279729         2.784084
 H        -0.058886         2.891348         1.120544
