19
Iteration:   651charge 0 multiplicity 1
 O         0.297429        -0.209441         0.618831
 C        -0.672063         0.760281         0.211429
 C        -2.098473         0.584885         0.388193
 C        -2.133816         2.124483         0.335599
 C        -1.983052         2.290393        -1.144607
 C        -0.702443         1.342549        -1.324850
 O        -2.786034         2.712145         1.352309
 C        -1.539437         2.500199         2.099350
 C        -0.689136         2.081457         0.889166
 H         0.418260        -0.919183        -0.015578
 H        -2.659131         0.083921        -0.464264
 H        -2.527830         0.224183         1.377218
 H        -2.843042         2.008303        -1.737125
 H        -1.783905         3.392435        -1.420472
 H        -0.760906         0.486585        -2.018614
 H         0.067741         2.039725        -1.692096
 H        -1.147023         3.471844         2.489548
 H        -1.719661         1.740153         2.929770
 H         0.016159         2.864610         0.712314
