19
Iteration:  1645
 O         0.385498        -0.208756         0.557278
 C        -0.726806         0.740222         0.206273
 C        -2.169761         0.534938         0.283334
 C        -2.097285         2.180927         0.246311
 C        -1.853237         2.452014        -1.191717
 C        -0.674437         1.361971        -1.318312
 O        -2.784293         2.721163         1.416035
 C        -1.628063         2.392776         2.229664
 C        -0.753917         2.047122         0.992820
 H         0.018415        -1.031360         0.214528
 H        -2.663249        -0.029225        -0.512820
 H        -2.651098         0.369666         1.202993
 H        -2.745091         2.133857        -1.832069
 H        -1.487273         3.350131        -1.505827
 H        -0.857157         0.830459        -2.279310
 H         0.249873         1.893472        -1.384021
 H        -1.175712         3.150111         2.761232
 H        -2.049510         1.513308         2.847252
 H         0.009756         2.751605         0.684635
