19
Iteration:   195
 O         0.290960        -0.296272         0.187321
 C        -0.604167         0.766004         0.255833
 C        -2.120121         0.472924         0.422386
 C        -2.106652         2.073028         0.346725
 C        -1.917244         2.214681        -1.247150
 C        -0.655696         1.330427        -1.194943
 O        -2.829652         2.889291         1.397410
 C        -1.694089         2.610117         2.245169
 C        -0.701636         2.103367         1.059043
 H         1.176360        -0.147214         0.530984
 H        -2.644016        -0.034655        -0.356905
 H        -2.505991        -0.050881         1.299885
 H        -2.782422         1.755402        -1.761548
 H        -1.798265         3.288668        -1.579807
 H        -0.794488         0.384094        -1.882922
 H         0.250321         1.797391        -1.523534
 H        -1.341355         3.555261         2.690560
 H        -1.887244         1.879232         3.071692
 H        -0.041411         2.886522         0.648830
