19
Iteration:   384charge 0 multiplicity 1
 O         0.364879        -0.127004         0.639103
 C        -0.694705         0.758487         0.181195
 C        -2.241848         0.524866         0.487714
 C        -2.162065         2.138121         0.265963
 C        -1.908457         2.356030        -1.184320
 C        -0.790781         1.242473        -1.339547
 O        -2.742940         2.723156         1.414956
 C        -1.480561         2.377333         2.073031
 C        -0.724041         2.163152         0.822796
 H         0.724268        -0.511197        -0.190215
 H        -2.947567        -0.142350        -0.020838
 H        -2.449000         0.480125         1.556636
 H        -2.833868         2.205555        -1.778132
 H        -1.404493         3.344853        -1.368630
 H        -1.201104         0.446038        -1.927632
 H         0.230131         1.618203        -1.654711
 H        -1.077188         3.344052         2.530852
 H        -1.496104         1.650368         2.887087
 H        -0.046116         2.948638         0.567081
