19
Iteration:   222
 O         0.467829        -0.212194         0.365019
 C        -0.640878         0.699814         0.179305
 C        -2.159156         0.447009         0.478377
 C        -2.146817         2.098066         0.316384
 C        -1.963305         2.308260        -1.168390
 C        -0.791477         1.328495        -1.309607
 O        -2.705708         2.989238         1.289928
 C        -1.657534         2.398431         2.226048
 C        -0.767522         2.059310         0.973437
 H         0.826467        -0.133130         1.263024
 H        -2.760068        -0.199550        -0.243337
 H        -2.546323         0.030059         1.421818
 H        -2.844507         1.937740        -1.708562
 H        -1.755202         3.352644        -1.337721
 H        -1.023147         0.631327        -2.064643
 H         0.155725         1.899966        -1.498184
 H        -1.272557         3.182772         2.890105
 H        -2.038809         1.629487         2.871322
 H         0.012553         2.815972         0.710859
