19
Iteration:  2903
 O         0.285433        -0.352822         0.217676
 C        -0.695457         0.723424         0.233962
 C        -2.184051         0.524995         0.376963
 C        -2.163110         2.118789         0.305673
 C        -1.848137         2.396300        -1.147275
 C        -0.621306         1.459737        -1.141771
 O        -2.836732         2.800746         1.344035
 C        -1.603769         2.375576         2.171937
 C        -0.691757         2.099909         1.049456
 H         0.815454        -0.205814         1.016718
 H        -2.838480         0.186144        -0.476227
 H        -2.342858         0.037938         1.305791
 H        -2.601310         2.121550        -1.846210
 H        -1.724776         3.470718        -1.382962
 H        -0.697466         0.720542        -1.994482
 H         0.371164         1.903347        -1.326455
 H        -1.367286         3.257040         2.692729
 H        -1.763426         1.680690         3.002847
 H         0.075686         2.917386         0.965100
