19
Iteration:  1110
 O         0.402912        -0.176199         0.384414
 C        -0.624450         0.762340         0.178424
 C        -2.191839         0.415727         0.309868
 C        -2.119382         2.116468         0.312161
 C        -1.814125         2.449857        -1.182735
 C        -0.752316         1.352911        -1.286032
 O        -2.788706         2.941267         1.320417
 C        -1.787861         2.328009         2.240213
 C        -0.673569         1.907595         1.080445
 H         0.600915         0.008776         1.314670
 H        -2.645242        -0.152957        -0.521569
 H        -2.472995        -0.074509         1.262322
 H        -2.664223         2.333745        -1.842259
 H        -1.332876         3.486394        -1.311834
 H        -0.924016         0.544104        -1.998701
 H         0.249196         1.797691        -1.578880
 H        -1.417397         3.137712         2.735596
 H        -2.186382         1.571299         2.957604
 H        -0.049020         2.762292         1.010799
