19
Iteration:  2976
 O         0.273706        -0.326906         0.425662
 C        -0.614165         0.832846         0.193799
 C        -2.136871         0.530489         0.402278
 C        -2.080999         2.145342         0.305872
 C        -1.787185         2.573498        -1.198670
 C        -0.783367         1.375249        -1.270658
 O        -2.744672         2.740484         1.316370
 C        -1.695104         2.245912         2.304481
 C        -0.807467         2.118263         0.958313
 H         1.110906        -0.188854        -0.078211
 H        -2.608238        -0.177882        -0.273163
 H        -2.459340         0.219650         1.525415
 H        -2.670174         2.328268        -1.892871
 H        -1.413731         3.559827        -1.497143
 H        -1.009530         0.481327        -1.932180
 H         0.152668         1.732549        -1.648436
 H        -1.198954         2.982238         3.028763
 H        -2.058285         1.316769         2.868363
 H        -0.031114         2.916706         0.823464
