19
Iteration:  3617charge 0 multiplicity 1
 O         0.338726        -0.243065         0.395782
 C        -0.673116         0.761000         0.160418
 C        -2.283509         0.533073         0.137895
 C        -2.142248         2.044570         0.307318
 C        -1.755045         2.563063        -1.124683
 C        -0.590149         1.475619        -1.322914
 O        -2.788796         2.805216         1.399668
 C        -1.731074         2.279409         2.351520
 C        -0.790307         1.869268         1.100674
 H         1.155087         0.193780         0.696139
 H        -2.515522         0.154608        -0.844682
 H        -2.837898         0.180199         0.995337
 H        -2.565641         2.396168        -1.949384
 H        -1.256432         3.517217        -1.179782
 H        -0.810316         0.722575        -2.189285
 H         0.289596         2.021406        -1.476182
 H        -1.218362         3.075815         2.969055
 H        -2.163924         1.523185         3.000284
 H         0.124376         2.549655         1.069694
