19
Iteration:  3821charge 0 multiplicity 1
 O         0.154430        -0.378118         0.320410
 C        -0.670308         0.718992         0.144174
 C        -2.147822         0.471529         0.214954
 C        -2.121464         2.076149         0.283968
 C        -1.736648         2.538599        -1.200870
 C        -0.499593         1.590699        -1.293146
 O        -2.849194         2.709833         1.496339
 C        -1.724752         2.398440         2.301696
 C        -0.742564         2.026277         1.101722
 H         0.799247        -0.000383         0.944766
 H        -2.657465        -0.062218        -0.616906
 H        -2.392158        -0.153300         1.067282
 H        -2.613885         2.308556        -1.800878
 H        -1.442589         3.530244        -1.342073
 H        -0.477860         0.825912        -2.054685
 H         0.398494         2.250898        -1.353376
 H        -1.380028         3.396614         2.732522
 H        -2.070073         1.647426         3.007883
 H         0.080877         2.737187         0.856503
