19
Iteration:  2080
 O         0.296145        -0.241946         0.446982
 C        -0.694656         0.814414         0.176344
 C        -2.185761         0.605456         0.381797
 C        -2.123544         2.137248         0.214442
 C        -1.906208         2.373458        -1.224508
 C        -0.660487         1.377283        -1.265010
 O        -2.724004         2.692685         1.424104
 C        -1.586686         2.376004         2.209975
 C        -0.738273         2.116544         0.966397
 H         0.013796        -0.812551         1.195348
 H        -2.770167         0.237504        -0.474482
 H        -2.520483         0.062634         1.309824
 H        -2.737108         2.216564        -1.950454
 H        -1.608898         3.401541        -1.311508
 H        -0.844600         0.513952        -1.896079
 H         0.316895         1.755274        -1.571094
 H        -1.131072         3.234820         2.761098
 H        -1.844019         1.528232         2.826910
 H         0.141922         2.695290         0.797866
