19
Iteration:  1691
 O         0.283912        -0.297996         0.504609
 C        -0.670576         0.660761         0.184318
 C        -2.139963         0.444841         0.343740
 C        -2.138056         2.103065         0.308242
 C        -1.775220         2.504365        -1.150152
 C        -0.603232         1.415972        -1.264536
 O        -2.841970         2.772787         1.401407
 C        -1.632935         2.474239         2.250271
 C        -0.797232         2.122222         0.889764
 H         0.394585        -0.870335        -0.283133
 H        -2.583348        -0.118330        -0.498595
 H        -2.565141         0.024248         1.285946
 H        -2.635297         2.210936        -1.860251
 H        -1.509669         3.560287        -1.230577
 H        -0.890759         0.646331        -2.064598
 H         0.343638         1.879471        -1.568858
 H        -1.397572         3.436483         2.582927
 H        -1.544467         1.561652         2.935194
 H        -0.178215         3.013759         0.616983
