19
Iteration:  3994
 O         0.350153        -0.262364         0.225255
 C        -0.698580         0.692086         0.149157
 C        -2.273414         0.474983         0.227593
 C        -2.048306         2.144842         0.291962
 C        -1.758715         2.532136        -1.136886
 C        -0.560325         1.507183        -1.217335
 O        -2.843182         2.759459         1.350439
 C        -1.778179         2.333207         2.321786
 C        -0.761749         1.947284         1.176481
 H         0.766681        -0.144106         1.094137
 H        -2.688738         0.170478        -0.751682
 H        -2.701298         0.168864         1.194278
 H        -2.547315         2.183474        -1.798175
 H        -1.454506         3.615963        -1.432700
 H        -0.695473         0.806876        -2.004013
 H         0.420222         1.947460        -1.354833
 H        -1.374087         3.206373         2.820350
 H        -1.984951         1.585534         3.086671
 H         0.115411         2.566580         1.312047
