19
Iteration:  1725charge 0 multiplicity 1
 O         0.289621        -0.223292         0.331397
 C        -0.676343         0.722183         0.236563
 C        -2.158527         0.562646         0.443184
 C        -2.033948         2.134368         0.334142
 C        -1.873993         2.285798        -1.128609
 C        -0.621348         1.379804        -1.258280
 O        -2.725381         2.905944         1.249126
 C        -1.817733         2.329063         2.229771
 C        -0.697649         2.009244         1.101824
 H         0.659852        -0.380170        -0.535117
 H        -2.714656         0.177729        -0.438295
 H        -2.595142         0.254806         1.446090
 H        -2.787953         1.972392        -1.714153
 H        -1.624540         3.353308        -1.509824
 H        -0.728668         0.665968        -2.136180
 H         0.276535         2.031931        -1.498577
 H        -1.636046         3.226898         2.861759
 H        -2.013098         1.599573         3.074649
 H         0.113851         2.745532         0.801279
