19
Iteration:  4950
 O         0.192969        -0.378340         0.224646
 C        -0.693079         0.796713         0.211769
 C        -2.162627         0.481703         0.206243
 C        -2.130495         2.106658         0.337858
 C        -1.712352         2.501176        -1.134747
 C        -0.397216         1.550339        -1.074469
 O        -2.911435         2.730801         1.326372
 C        -1.751806         2.339535         2.278438
 C        -0.803974         2.038215         1.141428
 H         0.949395        -0.066128        -0.272998
 H        -2.422266         0.145063        -0.799015
 H        -2.511013        -0.112581         0.963712
 H        -2.422098         1.972229        -1.752786
 H        -1.630981         3.542305        -1.502177
 H        -0.229021         1.019021        -1.994231
 H         0.531381         2.199991        -0.838361
 H        -1.530153         3.270216         2.813779
 H        -2.001998         1.419118         2.833358
 H        -0.012410         2.838000         1.274242
