19
Iteration:  3762
 O         0.235620        -0.256887         0.391666
 C        -0.618344         0.760764         0.155035
 C        -2.078173         0.581346         0.190158
 C        -2.082380         2.153440         0.287008
 C        -1.727356         2.534424        -1.160451
 C        -0.639183         1.369440        -1.328237
 O        -2.777030         2.813936         1.371814
 C        -1.824430         2.154244         2.405673
 C        -0.806281         2.022294         1.084443
 H         1.097280         0.104179         0.105901
 H        -2.517935         0.147465        -0.725694
 H        -2.327890         0.179148         1.194373
 H        -2.667861         2.383182        -1.678697
 H        -1.419731         3.641831        -1.275424
 H        -1.061359         0.577332        -1.970883
 H         0.222235         1.796392        -1.790478
 H        -1.519606         2.848694         3.152297
 H        -2.339553         1.354529         2.993557
 H        -0.070478         2.787629         1.314875
