19
Iteration:  3350charge 0 multiplicity 1
 O         0.178424        -0.276942         0.365913
 C        -0.622345         0.824185         0.148676
 C        -2.145295         0.511201         0.236524
 C        -2.106526         2.166726         0.249251
 C        -1.689153         2.550553        -1.176112
 C        -0.614553         1.414212        -1.215023
 O        -2.794762         2.727830         1.460727
 C        -1.754924         2.178420         2.253017
 C        -0.806399         2.098811         1.073990
 H         1.084534        -0.205220         0.039160
 H        -2.502479         0.005467        -0.644503
 H        -2.612944         0.402105         1.262330
 H        -2.539987         2.268231        -1.807054
 H        -1.187878         3.626494        -1.239062
 H        -0.958926         0.672385        -1.898274
 H         0.401498         1.775515        -1.550790
 H        -1.418684         2.788234         3.072387
 H        -2.092256         1.256634         2.746245
 H        -0.028745         2.911925         1.091172
