19
Iteration:   881charge 0 multiplicity 1
 O         0.285336        -0.342155         0.271398
 C        -0.620509         0.720766         0.186942
 C        -2.094467         0.577954         0.458457
 C        -2.098420         2.072362         0.324401
 C        -1.856710         2.345911        -1.245306
 C        -0.636696         1.449021        -1.235641
 O        -2.887443         2.726199         1.338247
 C        -1.706628         2.583996         2.199835
 C        -0.711530         1.966745         1.080015
 H         0.910215        -0.163187         0.981098
 H        -2.773589         0.030544        -0.278375
 H        -2.308509         0.269015         1.481054
 H        -2.676908         2.003364        -1.766592
 H        -1.824605         3.462210        -1.513876
 H        -0.618474         0.776549        -2.086256
 H         0.202333         2.186400        -1.269231
 H        -1.222659         3.500409         2.355214
 H        -1.957553         2.147504         3.222272
 H         0.018386         2.675917         1.026830
