19
Iteration:  4281
 O         0.286530        -0.284064         0.248718
 C        -0.660431         0.740950         0.110876
 C        -2.246823         0.541514         0.322507
 C        -2.066110         2.078182         0.315297
 C        -1.793364         2.469671        -1.128635
 C        -0.549539         1.549356        -1.171665
 O        -2.798046         2.838267         1.268641
 C        -1.746435         2.280338         2.264843
 C        -0.742981         1.922504         1.155601
 H         0.570449        -0.492573         1.147076
 H        -2.759525         0.150351        -0.595250
 H        -2.622369         0.049244         1.225942
 H        -2.629980         2.277010        -1.889863
 H        -1.440049         3.474471        -1.167130
 H        -0.689681         0.917013        -2.085369
 H         0.370885         2.014991        -1.392597
 H        -1.457411         3.138494         3.005408
 H        -2.199153         1.633561         2.966193
 H         0.129375         2.624798         1.209579
