19
Iteration:   166charge 0 multiplicity 1
 O         0.225693        -0.368488         0.426548
 C        -0.611063         0.715749         0.144725
 C        -2.099989         0.549688         0.550466
 C        -2.110596         2.003981         0.309134
 C        -1.940129         2.414619        -1.176441
 C        -0.627996         1.426418        -1.247135
 O        -2.858188         2.671731         1.354330
 C        -1.622033         2.576321         2.138917
 C        -0.703176         2.116722         0.900159
 H         1.129445        -0.307634         0.068686
 H        -2.875703        -0.112551         0.118618
 H        -2.084386         0.464927         1.671351
 H        -2.779849         2.330532        -1.814038
 H        -1.698736         3.506689        -1.152968
 H        -0.662642         0.808574        -2.063812
 H         0.307913         2.039117        -1.408102
 H        -1.379281         3.576121         2.409412
 H        -1.660144         1.884490         2.951233
 H        -0.184535         2.947421         0.427756
