19
Iteration:  2299
 O         0.210327        -0.301179         0.459164
 C        -0.658100         0.813622         0.120425
 C        -2.143896         0.552693         0.393792
 C        -2.160070         2.093344         0.312228
 C        -1.843996         2.381967        -1.182607
 C        -0.610403         1.361856        -1.327581
 O        -2.841689         2.741421         1.427899
 C        -1.552706         2.426529         2.266990
 C        -0.710347         2.078254         0.978826
 H         0.471101        -0.717518        -0.395779
 H        -2.644069         0.199766        -0.500655
 H        -2.216596         0.209923         1.427274
 H        -2.699990         2.110671        -1.813815
 H        -1.529005         3.448190        -1.475130
 H        -0.918114         0.612262        -2.033164
 H         0.308498         2.030353        -1.518193
 H        -1.100268         3.474133         2.681909
 H        -1.912210         1.721338         3.045380
 H        -0.087833         3.008750         0.792973
