19
Iteration:  3381charge 0 multiplicity 1
 O         0.314599        -0.307888         0.364490
 C        -0.637276         0.716998         0.060991
 C        -2.112338         0.591039         0.274890
 C        -2.026614         2.218453         0.337050
 C        -1.732511         2.545142        -1.112097
 C        -0.665470         1.376838        -1.300389
 O        -2.871281         2.766387         1.384900
 C        -1.850249         2.211270         2.301681
 C        -0.749064         2.040975         1.136079
 H         1.116221        -0.107356        -0.166079
 H        -2.760669         0.152618        -0.517950
 H        -2.670196         0.198162         1.113671
 H        -2.667092         2.573213        -1.705784
 H        -1.231987         3.538822        -1.313256
 H        -0.891165         0.706208        -2.128837
 H         0.367660         1.748488        -1.495868
 H        -1.436964         3.030461         2.895920
 H        -2.374158         1.428727         2.841772
 H         0.154596         2.628694         1.250404
