19
Iteration:  4577
 O         0.266842        -0.271785         0.372003
 C        -0.643101         0.735471         0.158157
 C        -2.136455         0.528741         0.197354
 C        -2.097076         2.144849         0.252478
 C        -1.793241         2.482200        -1.158844
 C        -0.519054         1.525331        -1.224346
 O        -2.889469         2.727114         1.470817
 C        -1.713965         2.293291         2.285197
 C        -0.758795         2.004195         1.052061
 H        -0.259475        -1.091950         0.385114
 H        -2.649019        -0.034091        -0.551300
 H        -2.564978         0.238456         1.200784
 H        -2.435414         2.483097        -2.016695
 H        -1.434433         3.464294        -1.259734
 H        -0.467243         0.886223        -2.108148
 H         0.437386         2.129423        -1.238031
 H        -1.331740         3.270368         2.627920
 H        -1.850689         1.534682         3.016555
 H        -0.124015         2.908612         0.856832
