19
Iteration:  3521
 O         0.319102        -0.224462         0.380818
 C        -0.717576         0.735028         0.178894
 C        -2.241606         0.456277         0.195265
 C        -2.189065         2.148784         0.324023
 C        -1.710835         2.597978        -1.066485
 C        -0.575011         1.499048        -1.219683
 O        -2.775315         2.804425         1.334446
 C        -1.702189         2.245875         2.316350
 C        -0.803073         1.895417         1.026698
 H         1.138817         0.016895        -0.101806
 H        -2.726226        -0.042612        -0.795756
 H        -2.773152        -0.030762         1.099110
 H        -2.551919         2.314802        -1.724280
 H        -1.382186         3.639397        -1.221654
 H        -0.751794         0.628059        -2.012803
 H         0.532371         1.731351        -1.261671
 H        -1.332157         3.171277         2.893670
 H        -2.191660         1.388176         2.858654
 H         0.025459         2.610838         0.904712
