19
Iteration:   320charge 0 multiplicity 1
 O         0.371995        -0.260927         0.311822
 C        -0.648544         0.750519         0.161640
 C        -2.173500         0.459528         0.639965
 C        -2.185468         1.984965         0.361424
 C        -2.042488         2.252102        -1.060068
 C        -0.622107         1.427267        -1.244714
 O        -2.782482         2.954007         1.241813
 C        -1.628289         2.500557         2.121326
 C        -0.620353         2.077689         0.927005
 H         0.128502        -1.188562         0.070877
 H        -2.851292        -0.191984        -0.048754
 H        -2.069181         0.392386         1.722367
 H        -2.792940         1.891146        -1.860694
 H        -1.882712         3.332991        -1.149395
 H        -0.624077         0.836167        -2.129059
 H         0.315314         2.063445        -1.141087
 H        -1.359565         3.494567         2.577219
 H        -2.000698         1.721344         2.763272
 H         0.176656         2.779176         0.593541
