19
Iteration:  3457
 O         0.110700        -0.339398         0.303263
 C        -0.575935         0.845536         0.247744
 C        -2.137902         0.629746         0.250473
 C        -2.048216         2.163223         0.331012
 C        -1.804960         2.495368        -1.211003
 C        -0.583822         1.471001        -1.276937
 O        -2.826429         2.600767         1.361996
 C        -1.766822         2.288702         2.270824
 C        -0.684044         2.026464         1.139771
 H         1.036236        -0.181749         0.559146
 H        -2.467857         0.084049        -0.759901
 H        -2.579177         0.248125         1.232180
 H        -2.772334         2.415072        -1.739741
 H        -1.453585         3.578960        -1.283504
 H        -0.486396         0.697774        -2.102351
 H         0.244857         2.253531        -1.270413
 H        -1.634141         3.239483         2.893589
 H        -1.975056         1.409760         2.959026
 H         0.170869         2.668642         0.981741
