19
Iteration:  1911
 O         0.228139        -0.327611         0.377632
 C        -0.703375         0.774590         0.179145
 C        -2.171768         0.509254         0.359292
 C        -2.142814         2.154488         0.301186
 C        -1.804559         2.421891        -1.220886
 C        -0.643586         1.286385        -1.273389
 O        -2.767438         2.717950         1.424576
 C        -1.586780         2.411211         2.246609
 C        -0.780223         2.194113         0.937244
 H         0.772250        -0.123909         1.173331
 H        -2.773119         0.096027        -0.504117
 H        -2.478390         0.153252         1.333297
 H        -2.639143         2.301630        -1.910927
 H        -1.228647         3.420388        -1.348183
 H        -0.723392         0.469817        -2.016827
 H         0.338701         1.854112        -1.374973
 H        -1.422248         3.401454         2.791709
 H        -1.681950         1.707984         3.197379
 H        -0.123743         3.088903         0.608776
