19
Iteration:  1215charge 0 multiplicity 1
 O         0.410301        -0.167781         0.341469
 C        -0.626352         0.788501         0.217147
 C        -2.212804         0.493266         0.338357
 C        -2.135707         2.094075         0.309246
 C        -1.781662         2.466456        -1.178757
 C        -0.681183         1.327264        -1.254905
 O        -2.744618         2.799707         1.331683
 C        -1.702095         2.384739         2.218883
 C        -0.848501         2.016694         1.056615
 H         0.125252        -0.804060         1.031720
 H        -2.646814        -0.170510        -0.479597
 H        -2.613468         0.061591         1.286117
 H        -2.629149         2.320941        -1.851617
 H        -1.464535         3.515716        -1.321522
 H        -1.094557         0.495612        -1.864349
 H         0.387500         1.601006        -1.600669
 H        -1.187848         3.185888         2.892212
 H        -2.149523         1.592049         2.865509
 H        -0.090917         2.892697         0.926462
