19
Iteration:  2629
 O         0.419529        -0.189065         0.385903
 C        -0.691341         0.697810         0.138970
 C        -2.246768         0.506626         0.415866
 C        -2.138965         2.085086         0.319466
 C        -1.856362         2.425625        -1.129971
 C        -0.780281         1.351105        -1.278188
 O        -2.724874         2.826767         1.326660
 C        -1.580599         2.479472         2.238863
 C        -0.739557         1.974889         1.013937
 H         0.347351        -0.990187        -0.150073
 H        -2.954494         0.054489        -0.169728
 H        -2.461174         0.094843         1.417621
 H        -2.801405         2.202501        -1.611607
 H        -1.723783         3.502506        -1.247736
 H        -0.824347         0.656376        -2.179439
 H         0.100729         1.916444        -1.403061
 H        -1.444827         3.451130         2.591018
 H        -1.681028         1.730008         3.049455
 H         0.162009         2.581501         0.814973
