19
Iteration:  4906
 O         0.252095        -0.234159         0.490161
 C        -0.587042         0.681259         0.109994
 C        -2.131378         0.552106         0.252901
 C        -2.054271         2.149107         0.286719
 C        -1.737620         2.650652        -1.080382
 C        -0.626175         1.505287        -1.306185
 O        -2.874764         2.736591         1.271826
 C        -1.835901         2.148920         2.289928
 C        -0.740855         1.922993         1.124591
 H         1.149788        -0.132809         0.191757
 H        -2.682762         0.177912        -0.605794
 H        -2.479970         0.110331         1.145499
 H        -2.403907         2.818548        -1.914285
 H        -1.276866         3.653743        -1.008918
 H        -1.004108         0.828713        -2.056022
 H         0.433826         1.859422        -1.528254
 H        -1.553185         3.018671         2.920616
 H        -2.363651         1.269370         2.677003
 H         0.116224         2.673859         0.998348
