19
Iteration:  3371charge 0 multiplicity 1
 O         0.318728        -0.356612         0.360798
 C        -0.626974         0.764388         0.185513
 C        -2.163706         0.686606         0.275906
 C        -2.070187         2.199236         0.395843
 C        -1.699440         2.535658        -1.226670
 C        -0.629135         1.352825        -1.399689
 O        -2.905348         2.776696         1.393088
 C        -1.825280         2.154961         2.344375
 C        -0.749185         2.055466         1.093389
 H         1.101203        -0.096057        -0.175421
 H        -2.651350         0.479662        -0.655208
 H        -2.317796         0.236261         1.295606
 H        -2.561966         2.442345        -1.916428
 H        -1.261544         3.572920        -0.951805
 H        -0.922417         0.487722        -1.950509
 H         0.301975         1.835546        -1.810904
 H        -1.592707         2.833995         3.146330
 H        -2.080382         1.229714         2.858886
 H        -0.048134         2.908675         1.214056
