19
Iteration:  2635
 O         0.374754        -0.215933         0.353872
 C        -0.687425         0.717231         0.170795
 C        -2.200914         0.517948         0.399881
 C        -2.143772         2.057475         0.267617
 C        -1.916292         2.419725        -1.124323
 C        -0.736353         1.330434        -1.216989
 O        -2.711139         2.798598         1.368116
 C        -1.593559         2.497958         2.229669
 C        -0.733432         2.024210         0.979101
 H         0.266373        -1.066049        -0.110899
 H        -2.924652        -0.060617        -0.338283
 H        -2.488908         0.257408         1.417224
 H        -2.740068         2.163176        -1.853835
 H        -1.680080         3.491306        -1.261160
 H        -0.834886         0.704962        -2.069812
 H         0.170290         2.039412        -1.361631
 H        -1.261746         3.508948         2.720384
 H        -1.687067         1.761389         3.038512
 H         0.128849         2.744572         0.938515
