19
Iteration:  1408
 O         0.285899        -0.250984         0.503108
 C        -0.603763         0.756157         0.174195
 C        -2.214729         0.596108         0.282370
 C        -2.134200         2.089461         0.320508
 C        -1.753302         2.393821        -1.153432
 C        -0.587989         1.419614        -1.272899
 O        -2.845394         2.659965         1.433046
 C        -1.605527         2.419648         2.261046
 C        -0.788152         2.145300         0.888900
 H        -0.154412        -1.083578         0.290919
 H        -2.718121         0.296934        -0.676809
 H        -2.727474         0.085067         1.108400
 H        -2.549764         2.047882        -1.915803
 H        -1.404906         3.366992        -1.411416
 H        -0.665351         0.700918        -2.174322
 H         0.292662         1.982136        -1.482674
 H        -1.477298         3.386826         2.882522
 H        -1.771721         1.484538         2.826191
 H        -0.195824         2.993602         0.716019
