19
Iteration:  2019
 O         0.306067        -0.302726         0.217750
 C        -0.659323         0.734273         0.191333
 C        -2.158474         0.463895         0.411232
 C        -2.068635         2.145547         0.343744
 C        -1.865327         2.363313        -1.120349
 C        -0.667066         1.365433        -1.202826
 O        -2.821008         2.892180         1.280638
 C        -1.634104         2.466898         2.220278
 C        -0.739013         2.039756         1.048955
 H         0.462904        -0.367599         1.184879
 H        -2.658590        -0.040349        -0.509682
 H        -2.459164        -0.158383         1.280825
 H        -2.801178         2.182238        -1.655125
 H        -1.635164         3.483971        -1.306053
 H        -0.956906         0.605486        -1.956396
 H         0.394030         1.668333        -1.457867
 H        -1.225459         3.311179         2.792232
 H        -2.133978         1.838242         3.028937
 H         0.176699         2.745209         1.042824
