19
Iteration:   656charge 0 multiplicity 1
 O         0.301083        -0.164753         0.651580
 C        -0.607186         0.738551         0.242529
 C        -2.128681         0.621288         0.363802
 C        -2.121749         2.139152         0.252298
 C        -2.001097         2.289966        -1.138252
 C        -0.793892         1.359105        -1.320121
 O        -2.722333         2.686936         1.339640
 C        -1.550929         2.433395         2.094203
 C        -0.699705         2.065363         0.904097
 H         0.174504        -0.957082         0.049887
 H        -2.682731         0.104200        -0.388570
 H        -2.417709         0.379320         1.352485
 H        -2.984702         2.019017        -1.609203
 H        -1.761549         3.318448        -1.424891
 H        -0.568128         0.574855        -2.071576
 H         0.101173         1.980000        -1.494049
 H        -1.195268         3.405032         2.429610
 H        -1.703269         1.800267         2.911381
 H         0.039874         2.905315         0.750905
