19
Iteration:  4020charge 0 multiplicity 1
 O         0.363670        -0.259990         0.278256
 C        -0.650108         0.720325         0.111629
 C        -2.246781         0.562246         0.288537
 C        -2.130168         2.101985         0.243777
 C        -1.806425         2.536974        -1.135306
 C        -0.519124         1.420081        -1.197376
 O        -2.805879         2.875771         1.420422
 C        -1.813716         2.204104         2.274229
 C        -0.785821         1.981615         1.043296
 H         0.933994        -0.105051         1.045279
 H        -2.793624         0.242742        -0.580819
 H        -2.484641         0.166140         1.304679
 H        -2.610944         2.295468        -1.945638
 H        -1.522373         3.543218        -1.196308
 H        -0.541247         0.731376        -2.074316
 H         0.452820         1.859152        -1.255718
 H        -1.467079         2.768541         3.259868
 H        -2.093607         1.221326         2.700468
 H         0.044324         2.744591         1.148654
