19
Iteration:  4718
 O         0.192405        -0.375530         0.525689
 C        -0.621306         0.787087         0.122325
 C        -2.116512         0.486879         0.215863
 C        -2.117461         2.095567         0.300279
 C        -1.821201         2.521087        -1.076956
 C        -0.481079         1.656818        -1.240200
 O        -2.847663         2.778544         1.348172
 C        -1.663517         2.242333         2.221052
 C        -0.799822         2.036562         1.030744
 H         0.189021        -0.907260        -0.306765
 H        -2.601153         0.000480        -0.624180
 H        -2.456988         0.070761         1.252511
 H        -2.461553         2.098087        -1.920510
 H        -1.692378         3.565741        -1.332767
 H        -0.666751         0.985629        -2.109579
 H         0.458154         2.212824        -1.297079
 H        -1.408826         3.113473         2.981534
 H        -2.031113         1.295158         2.633974
 H         0.023905         2.846991         1.011728
