19
Iteration:  4135
 O         0.368684        -0.379156         0.249297
 C        -0.597984         0.666995         0.071890
 C        -2.169721         0.620319         0.308865
 C        -2.074905         2.156700         0.344459
 C        -1.856351         2.540316        -1.088075
 C        -0.563677         1.516811        -1.224018
 O        -2.802799         2.849798         1.272947
 C        -1.903682         2.259319         2.313503
 C        -0.767825         1.967586         1.132448
 H         0.334999        -0.544039         1.205151
 H        -2.632770        -0.005141        -0.469647
 H        -2.145620         0.147614         1.317493
 H        -2.683731         2.270294        -1.660176
 H        -1.534019         3.563923        -1.395486
 H        -0.561697         0.830847        -2.109506
 H         0.493424         2.038834        -1.342776
 H        -1.354746         2.964828         2.878046
 H        -2.352987         1.374886         2.945518
 H         0.011841         2.737538         1.094027
