19
Iteration:  3158charge 0 multiplicity 1
 O         0.207312        -0.408781         0.240146
 C        -0.591968         0.759233         0.226456
 C        -2.115060         0.541186         0.244971
 C        -2.056106         2.086866         0.320011
 C        -1.795314         2.458169        -1.102314
 C        -0.602547         1.415881        -1.217093
 O        -2.865365         2.800273         1.401091
 C        -1.785525         2.349609         2.268402
 C        -0.717260         2.160511         1.071100
 H         1.130660        -0.130060         0.085939
 H        -2.606347         0.242639        -0.638546
 H        -2.537687         0.031588         1.213972
 H        -2.741505         2.187515        -1.743017
 H        -1.633786         3.527191        -1.163375
 H        -0.775480         0.795879        -2.099985
 H         0.400054         1.963484        -1.411518
 H        -1.347721         3.088812         3.007613
 H        -2.051395         1.476170         2.942965
 H         0.070844         2.935508         0.946255
