19
Iteration:   803
 O         0.348782        -0.147473         0.643401
 C        -0.643506         0.776444         0.211384
 C        -2.235952         0.593039         0.384351
 C        -2.110474         2.076419         0.295293
 C        -1.943735         2.292502        -1.243334
 C        -0.682717         1.408374        -1.365121
 O        -2.744528         2.770765         1.364507
 C        -1.614122         2.330043         2.155034
 C        -0.688036         2.048484         0.959391
 H         0.582533        -0.757563        -0.092472
 H        -2.817008         0.138565        -0.455122
 H        -2.660586         0.505139         1.386403
 H        -2.780020         1.919358        -1.797924
 H        -1.758312         3.382434        -1.450892
 H        -0.974750         0.656256        -2.094578
 H         0.283338         1.916444        -1.725436
 H        -1.256599         3.158778         2.774923
 H        -1.775936         1.575736         2.971925
 H        -0.062943         2.877279         0.742795
