19
Iteration:  2283
 O         0.279379        -0.292684         0.392036
 C        -0.645186         0.690465         0.161852
 C        -2.126061         0.554674         0.443195
 C        -2.050908         2.067131         0.299886
 C        -1.893100         2.467472        -1.146272
 C        -0.684198         1.415875        -1.251318
 O        -2.768503         2.763943         1.370006
 C        -1.692004         2.474545         2.187155
 C        -0.744151         2.090560         1.008086
 H         0.314197        -0.917268        -0.357012
 H        -2.772741        -0.201531        -0.071566
 H        -2.355925         0.254369         1.475188
 H        -2.704457         2.209870        -1.851530
 H        -1.566028         3.465748        -1.289742
 H        -0.844795         0.704107        -2.129987
 H         0.270036         1.847852        -1.592835
 H        -1.504402         3.298751         2.785072
 H        -1.801312         1.680818         2.943767
 H         0.239109         2.637718         0.609620
