19
Iteration:  1832charge 0 multiplicity 1
 O         0.193879        -0.316994         0.359554
 C        -0.673883         0.725517         0.165186
 C        -2.111067         0.527077         0.321033
 C        -2.115748         2.105789         0.312845
 C        -1.835177         2.358230        -1.160036
 C        -0.631226         1.330309        -1.197252
 O        -2.854863         2.839173         1.398837
 C        -1.580981         2.472215         2.242104
 C        -0.756297         2.104530         0.971801
 H         1.070141        -0.005036         0.655098
 H        -2.564628        -0.017416        -0.525796
 H        -2.463890        -0.072400         1.225576
 H        -2.709491         2.177260        -1.840642
 H        -1.546601         3.383545        -1.358827
 H        -0.534120         0.587711        -2.015818
 H         0.228500         1.969873        -1.388524
 H        -1.121642         3.306629         2.811174
 H        -1.948164         1.650368         2.975877
 H         0.027859         2.824797         0.599696
