19
Iteration:  4046
 O         0.224079        -0.272647         0.393353
 C        -0.631697         0.821244         0.181791
 C        -2.099767         0.472987         0.189022
 C        -2.094792         2.148163         0.245832
 C        -1.756686         2.534360        -1.089388
 C        -0.678439         1.523751        -1.231658
 O        -2.799140         2.779341         1.350975
 C        -1.708913         2.222997         2.283454
 C        -0.796141         1.982052         1.025067
 H         0.490828        -0.576539         1.270586
 H        -2.444835        -0.041920        -0.754310
 H        -2.379092        -0.074291         1.060238
 H        -2.554545         2.396019        -1.716698
 H        -1.384144         3.578418        -1.285699
 H        -0.815380         0.761287        -2.044778
 H         0.359698         2.028890        -1.565056
 H        -1.311123         2.841854         3.023315
 H        -1.986650         1.274239         2.955655
 H        -0.161222         2.887410         1.032199
