19
Iteration:   619
 O         0.371188        -0.263171         0.361691
 C        -0.686780         0.736365         0.209640
 C        -2.110027         0.464115         0.491359
 C        -2.237642         2.041300         0.319386
 C        -1.823710         2.277442        -1.234457
 C        -0.636367         1.243791        -1.263792
 O        -2.756090         2.895569         1.417502
 C        -1.617645         2.608127         2.227183
 C        -0.904408         2.127036         0.948623
 H         0.760782        -0.443459        -0.539278
 H        -2.632533        -0.258956        -0.230000
 H        -2.445752         0.246765         1.560069
 H        -2.542074         2.131874        -2.011514
 H        -1.359197         3.339069        -1.276594
 H        -0.842968         0.380544        -1.855052
 H         0.189874         1.845109        -1.558410
 H        -1.172112         3.485302         2.642548
 H        -1.895131         1.902937         3.043777
 H        -0.285089         2.921958         0.528500
