19
Iteration:  2294
 O         0.211233        -0.294933         0.440554
 C        -0.645110         0.781944         0.136251
 C        -2.133690         0.549746         0.410693
 C        -2.156420         2.120790         0.319703
 C        -1.845793         2.392830        -1.164583
 C        -0.617615         1.412646        -1.319803
 O        -2.828224         2.735794         1.409616
 C        -1.626028         2.461067         2.287874
 C        -0.659435         2.049499         0.913933
 H         0.407847        -0.752364        -0.384546
 H        -2.732975        -0.037514        -0.327363
 H        -2.216036         0.271896         1.464548
 H        -2.641554         2.087576        -1.870077
 H        -1.675010         3.439636        -1.290572
 H        -0.948297         0.579316        -1.994528
 H         0.378774         1.806042        -1.537034
 H        -1.244853         3.356741         2.651773
 H        -1.877106         1.689259         3.021265
 H         0.047099         2.929422         0.800869
