19
Iteration:  4059charge 0 multiplicity 1
 O         0.298580        -0.322472         0.399278
 C        -0.595364         0.742907         0.119968
 C        -2.133379         0.589770         0.174600
 C        -2.124399         2.092742         0.321637
 C        -1.839129         2.598453        -1.115149
 C        -0.560580         1.468104        -1.283501
 O        -2.842840         2.711978         1.382690
 C        -1.707749         2.265698         2.269597
 C        -0.766201         2.015020         1.075982
 H        -0.007470        -0.411344         1.328051
 H        -2.678472         0.191562        -0.711425
 H        -2.502316         0.190772         1.153735
 H        -2.587125         2.461855        -1.875499
 H        -1.474043         3.676822        -1.042319
 H        -0.860529         0.761143        -2.049884
 H         0.411808         1.984834        -1.540459
 H        -1.430338         3.157107         2.778297
 H        -2.089204         1.433122         2.910356
 H         0.070039         2.689621         0.915528
