19
Iteration:  4094
 O         0.284537        -0.242378         0.221627
 C        -0.713662         0.782638         0.203283
 C        -2.126745         0.516733         0.231658
 C        -2.177579         2.138472         0.246050
 C        -1.722055         2.514071        -1.170007
 C        -0.503703         1.464368        -1.088632
 O        -2.862728         2.678385         1.406221
 C        -1.641929         2.339357         2.265843
 C        -0.826984         1.991505         1.083394
 H        -0.082151        -0.987515         0.737437
 H        -2.673905         0.018387        -0.572701
 H        -2.675145         0.216519         1.204889
 H        -2.394480         2.444718        -2.114367
 H        -1.399055         3.564802        -1.143851
 H        -0.567589         0.712411        -1.868490
 H         0.465865         1.855486        -1.196253
 H        -1.392417         3.300060         2.819643
 H        -1.944117         1.764004         3.100680
 H        -0.114605         2.812920         0.861811
