19
Iteration:  1281
 O         0.174290        -0.344816         0.489652
 C        -0.635690         0.777200         0.176522
 C        -2.085356         0.371401         0.249773
 C        -2.121694         2.091861         0.289781
 C        -1.900093         2.469403        -1.115111
 C        -0.601751         1.473153        -1.304758
 O        -2.815706         2.744305         1.310697
 C        -1.608957         2.481520         2.263472
 C        -0.757631         2.055597         1.039587
 H         1.135799        -0.245925         0.334444
 H        -2.550798         0.024139        -0.714928
 H        -2.458208        -0.033934         1.191265
 H        -2.690926         2.225845        -1.791865
 H        -1.630088         3.537493        -1.362485
 H        -0.566012         0.773441        -2.117388
 H         0.283737         2.166585        -1.136217
 H        -1.366867         3.418529         2.842831
 H        -1.871903         1.770102         3.044687
 H        -0.076454         2.967032         0.853716
