19
Iteration:  2794
 O         0.159285        -0.367577         0.486702
 C        -0.596737         0.773118         0.118873
 C        -2.105178         0.518447         0.324436
 C        -2.161597         2.088016         0.303000
 C        -1.948549         2.382930        -1.183479
 C        -0.601515         1.443979        -1.296287
 O        -2.762869         2.783035         1.446808
 C        -1.578567         2.471650         2.242092
 C        -0.737391         2.075933         0.943258
 H         1.108262        -0.327661         0.278389
 H        -2.740107         0.078864        -0.465693
 H        -2.419437        -0.006533         1.253815
 H        -2.804007         2.036741        -1.806978
 H        -1.735893         3.477111        -1.370574
 H        -0.670513         0.754880        -2.208259
 H         0.247416         2.126602        -1.384218
 H        -1.149489         3.256198         2.851512
 H        -1.963419         1.594738         2.809532
 H        -0.046249         2.954458         0.828937
