19
Iteration:  4440charge 0 multiplicity 1
 O         0.281310        -0.274824         0.319011
 C        -0.646470         0.776969         0.151627
 C        -2.210247         0.551673         0.239544
 C        -2.070294         2.129562         0.273832
 C        -1.698007         2.553073        -1.141905
 C        -0.590054         1.416316        -1.244654
 O        -2.915124         2.673461         1.431831
 C        -1.682943         2.370786         2.305055
 C        -0.737570         2.043422         1.083454
 H        -0.150490        -1.026048         0.738237
 H        -2.533547         0.084531        -0.688593
 H        -2.662578         0.135788         1.154575
 H        -2.397090         2.402841        -1.954531
 H        -1.434971         3.649475        -1.408316
 H        -0.652297         0.581647        -1.945611
 H         0.358324         1.871689        -1.569719
 H        -1.374251         3.194209         2.873034
 H        -2.005043         1.513144         3.008500
 H         0.038872         2.759768         0.915755
