19
Iteration:   953charge 0 multiplicity 1
 O         0.386877        -0.125942         0.545686
 C        -0.652284         0.759976         0.229608
 C        -2.186606         0.565129         0.423971
 C        -2.077117         2.127987         0.241380
 C        -1.818658         2.445107        -1.211276
 C        -0.780422         1.307570        -1.390790
 O        -2.748262         2.738767         1.330088
 C        -1.730929         2.288815         2.250146
 C        -0.757766         2.035079         1.008807
 H         0.939975        -0.356391        -0.228004
 H        -2.759903         0.070050        -0.337691
 H        -2.501796         0.261112         1.404061
 H        -2.680620         2.500219        -1.964497
 H        -1.276612         3.358493        -1.429666
 H        -1.120222         0.452694        -1.954700
 H         0.185854         1.763592        -1.672486
 H        -1.487015         3.090152         3.060721
 H        -2.086774         1.434940         2.821508
 H         0.037124         2.911758         0.812627
