19
Iteration:  4110charge 0 multiplicity 1
 O         0.275948        -0.285458         0.189676
 C        -0.612587         0.748438         0.235553
 C        -2.211827         0.457300         0.235925
 C        -2.154457         2.018508         0.323688
 C        -1.740718         2.513953        -1.086591
 C        -0.527036         1.503945        -1.199850
 O        -2.811175         2.823230         1.359836
 C        -1.805377         2.376146         2.260807
 C        -0.762017         2.059826         1.132568
 H        -0.010161        -0.955086         0.835392
 H        -2.402291        -0.079491        -0.698553
 H        -2.381217        -0.102254         1.090174
 H        -2.521572         2.283494        -1.791868
 H        -1.437805         3.572306        -1.200063
 H        -0.550499         0.773923        -2.054166
 H         0.480311         2.060946        -1.334453
 H        -1.397068         3.171994         2.894450
 H        -2.113595         1.441155         2.850944
 H         0.082150         2.741999         0.925218
