19
Iteration:  1087charge 0 multiplicity 1
 O         0.466747        -0.155231         0.350969
 C        -0.682139         0.710739         0.211865
 C        -2.283580         0.482046         0.414560
 C        -2.153462         2.090641         0.222278
 C        -1.738431         2.520148        -1.106542
 C        -0.697167         1.317052        -1.250584
 O        -2.789323         2.828544         1.256341
 C        -1.664187         2.339002         2.261862
 C        -0.841367         1.967653         0.987527
 H         0.692560         0.040102         1.293680
 H        -2.868668        -0.068974        -0.319077
 H        -2.502033         0.072420         1.403789
 H        -2.462877         2.526766        -1.898659
 H        -1.241050         3.557854        -0.985273
 H        -1.035059         0.600846        -1.986814
 H         0.370304         1.646021        -1.523129
 H        -1.445911         3.087927         2.959293
 H        -1.964905         1.398945         2.799084
 H        -0.234509         2.884550         0.776817
