19
Iteration:  2354
 O         0.292346        -0.264955         0.408949
 C        -0.688974         0.730621         0.156152
 C        -2.119934         0.522209         0.440082
 C        -2.081034         2.099236         0.287038
 C        -1.869456         2.346744        -1.105874
 C        -0.715941         1.372674        -1.352266
 O        -2.781781         2.909068         1.345309
 C        -1.652061         2.318416         2.307147
 C        -0.736142         2.016073         0.915335
 H         1.149580        -0.008564         0.039056
 H        -2.741576        -0.009491        -0.297394
 H        -2.493118         0.367104         1.429413
 H        -2.705196         2.472977        -1.772534
 H        -1.389821         3.368615        -1.072701
 H        -0.936545         0.650595        -2.116712
 H         0.156990         2.036160        -1.635900
 H        -1.406062         3.196484         3.027512
 H        -2.121352         1.667699         3.028840
 H         0.098592         2.722292         0.669952
