19
Iteration:   377charge 0 multiplicity 1
 O         0.397975        -0.115843         0.598333
 C        -0.665440         0.770139         0.176208
 C        -2.218496         0.624083         0.457564
 C        -2.121406         2.145949         0.295162
 C        -1.903711         2.318294        -1.165855
 C        -0.837295         1.187696        -1.338756
 O        -2.808814         2.732481         1.357698
 C        -1.427251         2.397766         2.150866
 C        -0.770460         2.113076         0.893415
 H         0.813818        -0.509400        -0.176737
 H        -3.120095         0.128107        -0.156767
 H        -2.457906         0.335465         1.504329
 H        -2.849171         2.197429        -1.816472
 H        -1.492345         3.239566        -1.477808
 H        -1.122091         0.395681        -2.068229
 H         0.126650         1.523063        -1.718292
 H        -1.123735         3.324967         2.639205
 H        -1.529839         1.660401         2.953326
 H         0.078084         2.805032         0.547269
