19
Iteration:   507
 O         0.366038        -0.235935         0.471543
 C        -0.680210         0.691509         0.209999
 C        -2.118551         0.550736         0.367901
 C        -2.113521         2.090814         0.284741
 C        -1.983410         2.378369        -1.185520
 C        -0.786608         1.283153        -1.317938
 O        -2.749420         2.775858         1.395945
 C        -1.567408         2.590688         2.186276
 C        -0.713409         2.006963         0.959544
 H         0.932005         0.006912         1.229023
 H        -2.808241         0.072310        -0.429704
 H        -2.467523         0.145025         1.342526
 H        -2.866227         1.929672        -1.841829
 H        -1.912220         3.402611        -1.465305
 H        -1.164236         0.441254        -1.946573
 H         0.169106         1.677229        -1.696681
 H        -1.132227         3.634069         2.288091
 H        -1.843817         2.019697         3.065506
 H         0.208004         2.569451         0.656539
