19
Iteration:  2061charge 0 multiplicity 1
 O         0.246868        -0.205198         0.455939
 C        -0.716625         0.746480         0.097597
 C        -2.184163         0.480519         0.380019
 C        -2.131388         2.141206         0.314640
 C        -1.800222         2.472722        -1.149739
 C        -0.639638         1.359097        -1.277365
 O        -2.856049         2.675041         1.429816
 C        -1.484634         2.434447         2.194115
 C        -0.712369         2.051187         0.908127
 H        -0.106785        -0.572733         1.306594
 H        -2.884099        -0.201795        -0.336902
 H        -2.800046         0.323580         1.334634
 H        -2.520714         2.203337        -1.940851
 H        -1.508317         3.505826        -1.568108
 H        -0.692861         0.653533        -2.113292
 H         0.305060         1.951737        -1.495191
 H        -1.130703         3.424664         2.530080
 H        -1.500953         1.720788         3.025377
 H         0.033980         2.888423         0.617436
