19
Iteration:  1737charge 0 multiplicity 1
 O         0.348701        -0.239046         0.333718
 C        -0.690507         0.721771         0.200741
 C        -2.226603         0.504539         0.396935
 C        -1.992462         2.190314         0.334638
 C        -1.876448         2.309538        -1.189120
 C        -0.648331         1.380375        -1.216135
 O        -2.763944         2.920126         1.240339
 C        -1.735407         2.383391         2.322132
 C        -0.734605         2.013083         1.097955
 H         0.766508        -0.271552        -0.572992
 H        -2.985383         0.129251        -0.341648
 H        -2.394009        -0.025331         1.384661
 H        -2.722044         1.764554        -1.638801
 H        -1.779137         3.404236        -1.667666
 H        -0.780535         0.502987        -1.903476
 H         0.428077         1.773930        -1.293020
 H        -1.327837         3.089895         3.143133
 H        -2.366807         1.530931         2.468054
 H         0.081426         2.821882         1.012453
