19
Iteration:  2290
 O         0.218146        -0.289381         0.429206
 C        -0.635013         0.753117         0.143403
 C        -2.127045         0.558009         0.414970
 C        -2.133808         2.119228         0.322592
 C        -1.857338         2.400428        -1.157371
 C        -0.635529         1.429239        -1.304228
 O        -2.813198         2.738844         1.401267
 C        -1.664812         2.462202         2.266353
 C        -0.660279         2.060559         0.912450
 H         0.387769        -0.797997        -0.394314
 H        -2.769804        -0.163484        -0.184828
 H        -2.282687         0.237831         1.455162
 H        -2.618409         2.097182        -1.886371
 H        -1.688314         3.512747        -1.239594
 H        -0.879189         0.621546        -2.003005
 H         0.381507         1.698420        -1.588162
 H        -1.294727         3.416138         2.736680
 H        -1.829169         1.683783         3.030272
 H         0.096964         2.757360         0.753118
