19
Iteration:  2768charge 0 multiplicity 1
 O         0.238496        -0.357032         0.285573
 C        -0.680852         0.778007         0.213899
 C        -2.118395         0.538330         0.465509
 C        -2.076338         2.165108         0.281346
 C        -1.908337         2.418379        -1.142188
 C        -0.702192         1.382884        -1.222683
 O        -2.777925         2.748568         1.298096
 C        -1.628449         2.384016         2.205040
 C        -0.656461         2.118458         1.002576
 H         0.947256        -0.164282         0.911206
 H        -2.607841        -0.057993        -0.294944
 H        -2.614102         0.161427         1.392603
 H        -2.767274         2.157408        -1.733952
 H        -1.738742         3.463588        -1.295447
 H        -1.011713         0.634444        -1.994170
 H         0.271502         1.797499        -1.507008
 H        -1.327751         3.351247         2.694581
 H        -1.897992         1.593579         2.931071
 H         0.049263         3.017528         1.045906
