19
Iteration:  3875charge 0 multiplicity 1
 O         0.243619        -0.265711         0.367648
 C        -0.636161         0.734558         0.103230
 C        -2.173933         0.476338         0.371797
 C        -2.186163         2.108699         0.263752
 C        -1.688723         2.559616        -1.185202
 C        -0.541340         1.509975        -1.275718
 O        -2.798269         2.853330         1.355336
 C        -1.733910         2.217604         2.297777
 C        -0.832464         1.912693         1.117846
 H         1.031272         0.058389        -0.113702
 H        -2.638151        -0.171111        -0.409870
 H        -2.420862         0.247324         1.416292
 H        -2.518496         2.380224        -1.844479
 H        -1.424429         3.643558        -1.120124
 H        -0.865925         0.821683        -1.998787
 H         0.432243         1.864675        -1.596338
 H        -1.476917         3.041740         3.047019
 H        -2.196030         1.427544         2.923068
 H        -0.120275         2.694014         0.946319
