19
Iteration:  1942
 O         0.261535        -0.287876         0.480908
 C        -0.680120         0.753109         0.199893
 C        -2.166434         0.555107         0.324708
 C        -2.201790         2.062275         0.291613
 C        -1.875767         2.489795        -1.160297
 C        -0.651723         1.421065        -1.334566
 O        -2.756026         2.680812         1.359383
 C        -1.489227         2.447197         2.212368
 C        -0.733356         2.005514         0.978174
 H         0.151606        -0.474565         1.415812
 H        -2.943634         0.139360        -0.419295
 H        -2.402483         0.235669         1.366697
 H        -2.659710         2.297255        -1.924063
 H        -1.542900         3.575954        -1.329727
 H        -0.867927         0.591437        -2.039792
 H         0.305267         1.953673        -1.644697
 H        -1.344612         3.535026         2.308381
 H        -1.703884         1.800787         3.169935
 H        -0.076013         2.886768         0.647943
