19
Iteration:  1044charge 0 multiplicity 1
 O         0.265308        -0.303472         0.374094
 C        -0.617432         0.744926         0.145260
 C        -2.098956         0.530625         0.260212
 C        -2.066527         2.130764         0.331399
 C        -1.901281         2.396193        -1.241560
 C        -0.592604         1.431911        -1.209248
 O        -2.836973         2.665427         1.324840
 C        -1.660449         2.450478         2.331135
 C        -0.747950         2.196834         1.062468
 H        -0.128511        -0.909227         1.041306
 H        -2.647159        -0.090368        -0.492420
 H        -2.412780         0.225380         1.280657
 H        -2.728501         1.917511        -1.753307
 H        -1.708281         3.421273        -1.780101
 H        -0.599261         0.644507        -1.991154
 H         0.392853         2.044293        -1.303432
 H        -1.453950         3.318556         2.865403
 H        -1.899486         1.704457         3.136949
 H        -0.023307         2.997129         0.791910
