19
Iteration:  4913
 O         0.302771        -0.285515         0.456283
 C        -0.623375         0.750368         0.137782
 C        -2.188953         0.540768         0.248752
 C        -2.107470         2.142843         0.307499
 C        -1.695554         2.635890        -1.079368
 C        -0.545883         1.502134        -1.325408
 O        -2.861809         2.747373         1.290631
 C        -1.843552         2.178033         2.249717
 C        -0.796444         1.939483         1.145665
 H         1.178931        -0.167430         0.066734
 H        -2.711818         0.067862        -0.562683
 H        -2.504546         0.020051         1.227378
 H        -2.530834         2.581825        -1.834858
 H        -1.242705         3.630720        -1.083342
 H        -1.037022         1.010099        -2.253500
 H         0.465769         1.814965        -1.538847
 H        -1.466453         2.929518         3.004334
 H        -2.193887         1.361856         2.856015
 H         0.016401         2.728655         1.093701
