19
Iteration:  1751charge 0 multiplicity 1
 O         0.384251        -0.287870         0.363107
 C        -0.646276         0.704883         0.205164
 C        -2.184554         0.519990         0.360840
 C        -2.192297         2.157173         0.269773
 C        -1.874938         2.338940        -1.212876
 C        -0.645519         1.327525        -1.199508
 O        -2.740913         3.008858         1.356699
 C        -1.726084         2.331871         2.237690
 C        -0.787356         2.033180         1.093301
 H         0.927382        -0.377696        -0.419251
 H        -2.577035        -0.143624        -0.429816
 H        -2.493568         0.236200         1.340976
 H        -2.667307         2.031546        -1.880255
 H        -1.580117         3.411520        -1.539527
 H        -0.727879         0.588161        -1.990229
 H         0.238039         1.976733        -1.417862
 H        -1.366267         3.157646         2.974225
 H        -2.032449         1.571322         2.910332
 H         0.088695         2.701374         1.025540
