19
Iteration:  4121charge 0 multiplicity 1
 O         0.327505        -0.353266         0.219581
 C        -0.620226         0.721145         0.134004
 C        -2.114019         0.480250         0.262918
 C        -2.055232         2.083250         0.350130
 C        -1.769799         2.447756        -1.049270
 C        -0.567896         1.549761        -1.231096
 O        -2.832810         2.866548         1.286978
 C        -1.787270         2.351505         2.302410
 C        -0.803584         2.001873         1.130241
 H         0.128441        -0.851450         1.039088
 H        -2.826068         0.236735        -0.540842
 H        -2.600543         0.085827         1.087230
 H        -2.545378         2.278469        -1.773923
 H        -1.561099         3.542643        -1.015433
 H        -0.720367         0.910278        -2.134302
 H         0.388257         2.190377        -1.325004
 H        -1.729247         3.089029         3.092511
 H        -2.280626         1.455050         2.808233
 H        -0.123929         2.868145         0.994242
