19
Iteration:  2334charge 0 multiplicity 1
 O         0.322957        -0.266142         0.522677
 C        -0.718165         0.749992         0.175683
 C        -2.219865         0.542456         0.362327
 C        -2.145617         2.090625         0.264287
 C        -1.937719         2.485049        -1.184487
 C        -0.692817         1.389915        -1.229143
 O        -2.707477         2.797910         1.393949
 C        -1.556872         2.345040         2.163497
 C        -0.715904         2.041881         0.993737
 H         0.987874        -0.184125        -0.200008
 H        -2.825579        -0.034795        -0.435285
 H        -2.607742         0.027250         1.235543
 H        -2.740379         2.056367        -1.811436
 H        -1.661971         3.519069        -1.572197
 H        -0.875168         0.739403        -2.122382
 H         0.237620         1.875894        -1.579413
 H        -1.191257         3.180577         2.868214
 H        -1.928711         1.535034         2.859365
 H         0.022093         2.684728         0.691847
