19
Iteration:  1511charge 0 multiplicity 1
 O         0.327734        -0.194130         0.558275
 C        -0.694444         0.782183         0.150008
 C        -2.182511         0.635631         0.342060
 C        -2.126301         2.167504         0.340693
 C        -1.872143         2.409532        -1.210521
 C        -0.661949         1.302484        -1.257201
 O        -2.813302         2.793024         1.337094
 C        -1.690191         2.250139         2.237207
 C        -0.644792         2.031650         0.947144
 H         0.553325        -0.664245        -0.253976
 H        -2.563771         0.237533        -0.572564
 H        -2.327082         0.016526         1.261100
 H        -2.770412         2.114408        -1.787495
 H        -1.568025         3.500791        -1.507018
 H        -0.758929         0.610255        -2.060133
 H         0.296337         1.935659        -1.440877
 H        -1.515715         3.213316         2.876722
 H        -1.926246         1.415447         2.900753
 H         0.235355         2.738710         0.813569
