19
Iteration:   741
 O         0.340894        -0.314660         0.254421
 C        -0.626510         0.654590         0.183253
 C        -2.094692         0.540482         0.502175
 C        -2.059689         2.135117         0.333126
 C        -1.931273         2.363640        -1.178478
 C        -0.720086         1.333334        -1.224088
 O        -2.862331         2.772014         1.272747
 C        -1.688833         2.585885         2.178775
 C        -0.672427         2.019352         1.068253
 H         0.951301         0.026051         0.938316
 H        -2.845392        -0.097918        -0.089371
 H        -2.422152         0.334046         1.532730
 H        -2.763653         2.237563        -1.826634
 H        -1.623693         3.483507        -1.366645
 H        -0.826333         0.492093        -1.909917
 H         0.211278         1.801449        -1.323425
 H        -1.383973         3.585923         2.377685
 H        -2.096657         2.073255         3.146446
 H         0.084239         2.794293         0.858312
