19
Iteration:  2297
 O         0.209970        -0.298895         0.451370
 C        -0.654080         0.802122         0.127595
 C        -2.141567         0.546719         0.401437
 C        -2.162362         2.107752         0.315108
 C        -1.842914         2.386378        -1.173661
 C        -0.613184         1.383886        -1.326723
 O        -2.837347         2.737842         1.418922
 C        -1.588139         2.440802         2.281330
 C        -0.683548         2.056424         0.943485
 H         0.440529        -0.734996        -0.398460
 H        -2.660329         0.121310        -0.408075
 H        -2.196572         0.257281         1.455225
 H        -2.672156         2.097744        -1.838626
 H        -1.603371         3.442011        -1.388210
 H        -0.952834         0.596718        -1.999480
 H         0.377796         1.951584        -1.522474
 H        -1.146337         3.458607         2.669784
 H        -1.907802         1.703120         3.028049
 H         0.004108         3.036551         0.801841
