19
Iteration:  4444charge 0 multiplicity 1
 O         0.266290        -0.284192         0.352137
 C        -0.649821         0.789098         0.145191
 C        -2.193579         0.545680         0.234278
 C        -2.080563         2.092829         0.258555
 C        -1.701641         2.532669        -1.118460
 C        -0.581844         1.473840        -1.298078
 O        -2.904967         2.681596         1.429585
 C        -1.687044         2.336880         2.314852
 C        -0.737292         2.075762         1.057392
 H        -0.209640        -1.013216         0.803386
 H        -2.598795         0.162637        -0.737119
 H        -2.663403         0.103330         1.089199
 H        -2.507486         2.360099        -1.916394
 H        -1.391250         3.558819        -1.203281
 H        -0.697214         0.493280        -1.925843
 H         0.447578         1.769590        -1.537605
 H        -1.282826         3.220416         2.923963
 H        -1.977403         1.630884         3.055204
 H         0.099241         2.841699         0.954176
