19
Iteration:  1763
 O         0.319226        -0.296791         0.446509
 C        -0.630576         0.733487         0.270621
 C        -2.151780         0.519424         0.377859
 C        -2.124915         2.066396         0.287626
 C        -1.871458         2.377019        -1.188162
 C        -0.634480         1.394574        -1.290874
 O        -2.748417         2.917765         1.393558
 C        -1.710460         2.400647         2.235860
 C        -0.808258         2.002630         0.944029
 H         0.784517        -0.214530        -0.434892
 H        -2.732855         0.110685        -0.447651
 H        -2.552005         0.115197         1.268607
 H        -2.654181         2.274768        -1.934043
 H        -1.422512         3.386172        -1.250694
 H        -0.763981         0.601230        -2.011539
 H         0.355421         1.829419        -1.434689
 H        -1.164806         3.199940         2.822043
 H        -2.133150         1.597160         2.817058
 H        -0.246355         2.880067         0.670243
