19
Iteration:   755charge 0 multiplicity 1
 O         0.293680        -0.357585         0.316747
 C        -0.622751         0.789087         0.199996
 C        -2.166413         0.536643         0.466927
 C        -2.182724         1.993500         0.272375
 C        -1.887315         2.322538        -1.129635
 C        -0.618049         1.347301        -1.286697
 O        -2.822315         2.797728         1.319842
 C        -1.659819         2.624837         2.237749
 C        -0.764036         2.078269         1.026342
 H         1.187950        -0.061700         0.540639
 H        -2.703247         0.002561        -0.282318
 H        -2.152523         0.144276         1.471046
 H        -2.753425         2.050525        -1.856875
 H        -1.510656         3.312338        -1.263999
 H        -0.768604         0.474889        -2.035098
 H         0.265281         1.983059        -1.610965
 H        -1.205769         3.558934         2.682963
 H        -1.757016         1.992648         3.083153
 H         0.079386         2.833630         0.777176
