19
Iteration:  2442
 O         0.343758        -0.243077         0.398292
 C        -0.667507         0.722983         0.162898
 C        -2.173671         0.443438         0.312320
 C        -2.169102         2.063707         0.325934
 C        -1.953082         2.391134        -1.191612
 C        -0.686923         1.380658        -1.263791
 O        -2.679951         2.866961         1.459902
 C        -1.605791         2.413469         2.182209
 C        -0.740181         2.112334         0.962214
 H        -0.152303        -0.651975         1.127061
 H        -2.781529         0.120288        -0.529320
 H        -2.440496        -0.056304         1.209013
 H        -2.814630         2.303706        -1.850136
 H        -1.629695         3.460695        -1.176698
 H        -0.773159         0.679210        -2.103528
 H         0.251589         1.947459        -1.289249
 H        -1.172117         3.234310         2.847840
 H        -1.719298         1.518316         2.834109
 H        -0.007882         2.778487         0.456756
