19
Iteration:  4186
 O         0.314769        -0.267843         0.398297
 C        -0.632866         0.699506         0.157914
 C        -2.227707         0.566095         0.154401
 C        -2.181086         2.142692         0.283343
 C        -1.741111         2.554817        -1.091100
 C        -0.537411         1.460290        -1.267011
 O        -2.840888         2.695446         1.488881
 C        -1.698082         2.301118         2.204864
 C        -0.805881         2.029222         1.006471
 H         0.282075        -0.572447         1.320005
 H        -2.846370         0.229976        -0.740867
 H        -2.799358         0.194094         0.973918
 H        -2.426290         2.574002        -1.958704
 H        -1.303864         3.617699        -1.065766
 H        -0.676814         0.697432        -2.033034
 H         0.484664         1.815931        -1.509461
 H        -1.229933         3.003767         2.892403
 H        -1.754405         1.444148         2.900696
 H        -0.005403         2.751976         0.778598
