19
Iteration:   404
 O         0.255954        -0.171627         0.625994
 C        -0.645029         0.763273         0.195076
 C        -2.064913         0.435292         0.455807
 C        -2.246746         1.997086         0.266308
 C        -1.978013         2.379982        -1.282593
 C        -0.765251         1.305998        -1.321112
 O        -2.735902         2.823312         1.424702
 C        -1.388955         2.532046         2.173035
 C        -0.809874         2.132652         0.847666
 H         0.424353        -0.853739        -0.029468
 H        -2.561323        -0.108982        -0.250452
 H        -2.311340        -0.023927         1.398254
 H        -2.665128         2.206072        -2.051849
 H        -1.614203         3.473360        -1.285537
 H        -0.954638         0.544599        -2.088322
 H         0.261140         1.763659        -1.441013
 H        -1.072230         3.304503         2.889672
 H        -1.510707         1.646785         2.847189
 H        -0.115126         2.718862         0.340433
