19
Iteration:  1483charge 0 multiplicity 1
 O         0.471204        -0.196357         0.408283
 C        -0.707290         0.733027         0.215791
 C        -2.194504         0.488154         0.333065
 C        -2.192932         2.100059         0.297976
 C        -1.813128         2.357781        -1.250480
 C        -0.669159         1.381681        -1.257335
 O        -2.720955         2.979797         1.388502
 C        -1.741129         2.322636         2.260117
 C        -0.799765         1.991910         1.056139
 H         0.204853        -0.976525        -0.124115
 H        -2.583098        -0.056581        -0.546898
 H        -2.548082         0.112033         1.300436
 H        -2.619535         2.071728        -1.972849
 H        -1.487329         3.325568        -1.334733
 H        -0.642964         0.693902        -2.154523
 H         0.193069         1.970528        -1.323404
 H        -1.279207         3.109882         2.819137
 H        -2.245752         1.535925         2.916227
 H        -0.154020         2.831955         0.953960
