19
Iteration:  4671
 O         0.363994        -0.191653         0.275865
 C        -0.664672         0.693183         0.210332
 C        -2.239261         0.564364         0.202167
 C        -2.080859         2.079724         0.349509
 C        -1.693575         2.548214        -1.092569
 C        -0.583104         1.363008        -1.148304
 O        -2.879746         2.829639         1.325431
 C        -1.792741         2.311439         2.288567
 C        -0.734240         1.930565         1.159593
 H         0.696016        -0.582858        -0.561746
 H        -2.758550         0.036911        -0.686866
 H        -2.455439         0.020291         1.126108
 H        -2.455748         2.443965        -1.965456
 H        -1.405105         3.631952        -1.212516
 H        -0.875143         0.526471        -1.914937
 H         0.318097         1.796408        -1.488740
 H        -1.477268         3.297646         2.744691
 H        -2.291215         1.560677         3.002796
 H        -0.161193         2.822479         0.851059
