19
Iteration:  1874charge 0 multiplicity 1
 O         0.360426        -0.328005         0.322984
 C        -0.645306         0.639785         0.148961
 C        -2.122524         0.489707         0.437758
 C        -2.085700         2.197781         0.351982
 C        -1.931197         2.403274        -1.185606
 C        -0.719047         1.358036        -1.274092
 O        -2.710097         2.970502         1.256405
 C        -1.762294         2.392188         2.262270
 C        -0.760053         1.980196         1.065785
 H         1.028871         0.025786         0.900714
 H        -2.782486         0.085119        -0.301678
 H        -2.431694         0.084429         1.448386
 H        -2.938150         2.213710        -1.657989
 H        -1.569142         3.312296        -1.526385
 H        -0.613970         0.703669        -2.151220
 H         0.173277         1.953523        -1.163851
 H        -1.379248         3.207739         2.860040
 H        -2.168842         1.527929         2.748389
 H         0.011664         2.719996         1.018977
