19
Iteration:  3283charge 0 multiplicity 1
 O         0.159703        -0.349282         0.159722
 C        -0.593957         0.831975         0.216827
 C        -2.172844         0.508732         0.238626
 C        -2.089611         2.103501         0.300671
 C        -1.749702         2.462776        -1.115876
 C        -0.585425         1.482118        -1.185610
 O        -2.867198         2.739333         1.371684
 C        -1.723928         2.342656         2.272848
 C        -0.710711         2.064020         1.148577
 H         0.750798        -0.303711         0.940903
 H        -2.611598        -0.083864        -0.628435
 H        -2.595675         0.173243         1.170506
 H        -2.465675         2.269400        -1.961295
 H        -1.409192         3.575976        -1.017118
 H        -0.478362         0.673636        -1.923027
 H         0.343234         2.070464        -1.209647
 H        -1.416792         3.209836         2.856332
 H        -1.970277         1.500523         2.894265
 H         0.097924         2.766244         0.992258
