19
Iteration:  3013charge 0 multiplicity 1
 O         0.373729        -0.232889         0.303815
 C        -0.620026         0.734828         0.184390
 C        -2.297598         0.489966         0.269486
 C        -2.159581         2.093363         0.346183
 C        -1.824425         2.401822        -1.095979
 C        -0.635286         1.393806        -1.200967
 O        -2.772689         2.838934         1.360704
 C        -1.633769         2.440239         2.319277
 C        -0.799408         1.960088         1.049782
 H         0.685797        -0.455519        -0.597182
 H        -2.649351         0.049661        -0.717989
 H        -2.669002        -0.015109         1.070922
 H        -2.636495         2.231560        -1.762254
 H        -1.429934         3.415944        -1.376772
 H        -0.728426         0.638549        -1.983936
 H         0.348345         1.922370        -1.378708
 H        -1.247345         3.338839         2.783049
 H        -2.076033         1.785626         3.116433
 H        -0.152535         2.867631         0.894603
