19
Iteration:  4672charge 0 multiplicity 1
 O         0.357320        -0.188774         0.267755
 C        -0.660907         0.696211         0.213245
 C        -2.252116         0.558846         0.203083
 C        -2.080989         2.082429         0.344078
 C        -1.682367         2.542501        -1.099102
 C        -0.573447         1.370423        -1.144619
 O        -2.886622         2.826079         1.326317
 C        -1.790586         2.307231         2.286403
 C        -0.735337         1.931181         1.166385
 H         0.714676        -0.602566        -0.559866
 H        -2.742536         0.057885        -0.695980
 H        -2.459341         0.052131         1.175026
 H        -2.480405         2.407340        -1.953060
 H        -1.446619         3.619177        -1.232989
 H        -0.883306         0.538591        -1.905968
 H         0.316008         1.782598        -1.478619
 H        -1.437532         3.319471         2.779637
 H        -2.269515         1.577345         3.031436
 H        -0.113278         2.832745         0.847314
