19
Iteration:  4387
 O         0.279686        -0.331756         0.266825
 C        -0.700218         0.735234         0.081954
 C        -2.107623         0.445798         0.234806
 C        -2.098443         2.037963         0.339240
 C        -1.796511         2.459931        -1.040129
 C        -0.557745         1.529869        -1.227468
 O        -2.733421         2.949975         1.352024
 C        -1.823862         2.309126         2.269242
 C        -0.806464         1.994835         1.092091
 H         0.543866        -0.405059         1.190578
 H        -2.675658         0.034063        -0.601010
 H        -2.244603        -0.054713         1.186559
 H        -2.589312         2.315526        -1.840325
 H        -1.595583         3.608896        -0.997767
 H        -0.647130         0.707127        -2.049010
 H         0.399616         2.116240        -1.291606
 H        -1.437804         3.065144         2.935041
 H        -2.396525         1.486824         2.730624
 H         0.013555         2.728413         0.968969
