19
Iteration:  1870
 O         0.366434        -0.331782         0.321835
 C        -0.651252         0.632430         0.144383
 C        -2.137693         0.510304         0.468583
 C        -2.031088         2.156119         0.294406
 C        -1.962954         2.415485        -1.181984
 C        -0.717046         1.359217        -1.275490
 O        -2.708748         2.964274         1.231927
 C        -1.734232         2.428258         2.311808
 C        -0.800261         1.948411         1.062451
 H         1.036949         0.098011         0.907822
 H        -2.761177         0.057085        -0.314423
 H        -2.336063         0.196718         1.461054
 H        -2.878021         2.127568        -1.693007
 H        -1.498949         3.417100        -1.458860
 H        -0.633809         0.786195        -2.197146
 H         0.107989         2.070800        -1.075727
 H        -1.415005         3.083877         3.164634
 H        -2.262448         1.548232         2.645402
 H        -0.045821         2.735470         0.938642
