19
Iteration:  3954
 O         0.323485        -0.387144         0.332673
 C        -0.611676         0.748631         0.131699
 C        -2.161999         0.509001         0.295066
 C        -2.134359         2.106812         0.316549
 C        -1.683275         2.577017        -1.122262
 C        -0.484953         1.548751        -1.291200
 O        -2.970347         2.717121         1.417663
 C        -1.679810         2.311892         2.265838
 C        -0.801175         2.110524         1.024390
 H        -0.363356        -0.983955         0.697992
 H        -2.841390         0.019504        -0.374669
 H        -2.467670         0.042116         1.293138
 H        -2.485871         2.378573        -1.924328
 H        -1.650776         3.605538        -1.029818
 H        -0.772866         0.962573        -2.213833
 H         0.541557         1.891034        -1.414628
 H        -1.440374         3.163975         3.082867
 H        -2.003667         1.423807         2.843503
 H        -0.055019         2.909757         0.729665
