19
Iteration:  2585
 O         0.354748        -0.217100         0.432794
 C        -0.715763         0.808824         0.230014
 C        -2.181844         0.495616         0.388823
 C        -2.104508         2.164620         0.345648
 C        -1.886210         2.389839        -1.219912
 C        -0.768406         1.280670        -1.254644
 O        -2.730225         2.846871         1.393261
 C        -1.566080         2.336125         2.253508
 C        -0.739557         2.138455         0.922342
 H         0.578549        -0.655800        -0.396543
 H        -2.665857        -0.017393        -0.356291
 H        -2.364096        -0.100093         1.291277
 H        -2.696411         2.281316        -1.917333
 H        -1.352788         3.293802        -1.585455
 H        -1.162173         0.378861        -1.841810
 H         0.118981         1.634739        -1.682046
 H        -1.195173         2.896897         3.072412
 H        -1.920911         1.380361         2.658833
 H        -0.359907         3.118194         0.700396
