19
Iteration:  4414
 O         0.379603        -0.279940         0.143018
 C        -0.686171         0.723108         0.210541
 C        -2.265605         0.573887         0.355070
 C        -2.068078         2.096627         0.257611
 C        -1.718327         2.492168        -1.114960
 C        -0.568913         1.460118        -1.152120
 O        -2.841095         2.796426         1.339288
 C        -1.773123         2.304479         2.302469
 C        -0.800334         2.010887         1.086294
 H         0.306167        -0.988205         0.799893
 H        -2.740185         0.140864        -0.541317
 H        -2.706070         0.302172         1.344830
 H        -2.406374         2.371216        -1.964237
 H        -1.515815         3.529822        -1.212407
 H        -0.596156         0.651857        -1.900706
 H         0.482667         1.937814        -1.321129
 H        -1.303888         3.228354         2.789622
 H        -2.242219         1.595141         3.014345
 H         0.092525         2.678522         1.064912
