19
Iteration:  3197
 O         0.235967        -0.295675         0.481308
 C        -0.662652         0.739197         0.153389
 C        -2.155175         0.574982         0.338152
 C        -2.150065         2.106905         0.212380
 C        -1.798576         2.521331        -1.163103
 C        -0.549574         1.534156        -1.253194
 O        -2.826204         2.709337         1.498529
 C        -1.654863         2.324100         2.191434
 C        -0.772971         1.967147         0.991343
 H         0.331541        -0.590041        -0.455438
 H        -2.687849         0.177078        -0.603400
 H        -2.589390         0.085183         1.159257
 H        -2.400748         2.311913        -2.009763
 H        -1.532642         3.601206        -1.334550
 H        -0.487373         0.833952        -2.102404
 H         0.295539         2.212303        -1.282296
 H        -1.297313         3.084581         2.859007
 H        -1.941854         1.445231         2.767240
 H         0.095727         2.648723         0.832875
