19
Iteration:  3909charge 0 multiplicity 1
 O         0.321917        -0.224941         0.421593
 C        -0.699093         0.697058         0.209913
 C        -2.239701         0.560053         0.179122
 C        -2.118262         2.089856         0.325289
 C        -1.828456         2.518747        -1.085607
 C        -0.562654         1.499712        -1.217219
 O        -2.806118         2.837093         1.351977
 C        -1.676391         2.236610         2.255061
 C        -0.716833         1.991783         1.104796
 H         0.785851        -0.623202        -0.341886
 H        -2.465550         0.173071        -0.818468
 H        -2.896035        -0.067485         0.818530
 H        -2.617306         2.133931        -1.789371
 H        -1.558508         3.488515        -1.461337
 H        -0.771807         0.702391        -1.935216
 H         0.366216         1.969491        -1.472816
 H        -1.595629         2.980340         3.167434
 H        -2.014947         1.259092         2.592581
 H         0.032155         2.716669         0.759055
