19
Iteration:  2608
 O         0.407453        -0.127895         0.431766
 C        -0.667994         0.686836         0.162613
 C        -2.188720         0.502546         0.424163
 C        -2.129699         2.056219         0.289803
 C        -1.900396         2.426094        -1.096322
 C        -0.756893         1.273177        -1.362058
 O        -2.732877         2.948365         1.384027
 C        -1.635451         2.397816         2.229561
 C        -0.731963         1.948432         0.964214
 H         0.760758        -0.711005        -0.265601
 H        -2.792811        -0.063661        -0.252814
 H        -2.648743         0.242899         1.432425
 H        -2.654762         2.371447        -1.899082
 H        -1.573499         3.503379        -1.089297
 H        -1.272773         0.586259        -2.117259
 H         0.031293         1.733375        -1.841086
 H        -1.027015         3.038464         2.812035
 H        -2.052732         1.632040         2.953002
 H        -0.003157         2.699902         1.015143
