19
Iteration:   299charge 0 multiplicity 1
 O         0.305567        -0.276956         0.374179
 C        -0.624913         0.721358         0.184189
 C        -2.095136         0.493391         0.503297
 C        -2.105866         2.055600         0.322350
 C        -1.986152         2.268524        -1.230869
 C        -0.697419         1.478710        -1.266947
 O        -2.797161         2.735752         1.352745
 C        -1.519643         2.656764         2.233739
 C        -0.766021         2.051653         0.985383
 H        -0.089934        -1.150440         0.319627
 H        -2.676717        -0.134447        -0.252968
 H        -2.292441         0.389720         1.561712
 H        -2.843612         1.822347        -1.826060
 H        -1.827247         3.263817        -1.592217
 H        -0.695750         0.723344        -2.048123
 H         0.220806         2.076079        -1.415024
 H        -1.061499         3.658048         2.367168
 H        -1.785814         2.111196         3.103175
 H        -0.116990         2.832335         0.520810
