19
Iteration:   874
 O         0.294810        -0.324007         0.254136
 C        -0.612673         0.696247         0.136474
 C        -2.092199         0.567831         0.463738
 C        -2.060576         2.048354         0.293105
 C        -1.875580         2.369058        -1.177738
 C        -0.654063         1.397058        -1.236778
 O        -2.898910         2.780991         1.351341
 C        -1.726842         2.535116         2.198057
 C        -0.741288         2.033813         1.083385
 H         0.851114        -0.217816         1.049430
 H        -2.632110        -0.043377        -0.254815
 H        -2.239828         0.264398         1.523870
 H        -2.744831         2.035452        -1.824024
 H        -1.497812         3.350974        -1.373557
 H        -0.479253         0.710651        -2.092616
 H         0.221918         1.981968        -1.124178
 H        -1.359372         3.584427         2.430896
 H        -1.960108         2.094695         3.202419
 H         0.076441         2.795072         0.781670
