19
Iteration:  4629charge 0 multiplicity 1
 O         0.265976        -0.234425         0.578926
 C        -0.656263         0.791440         0.106261
 C        -2.118708         0.542412         0.268984
 C        -2.162952         2.140735         0.283905
 C        -1.812851         2.589788        -1.139166
 C        -0.572364         1.510135        -1.290658
 O        -2.783325         2.732315         1.364113
 C        -1.723272         2.199239         2.219947
 C        -0.783884         1.932503         1.011189
 H         0.255465        -0.789010        -0.252281
 H        -2.716767         0.128599        -0.539612
 H        -2.218593         0.159339         1.279343
 H        -2.602991         2.611083        -1.974955
 H        -1.371717         3.596172        -1.204896
 H        -0.784030         0.762734        -2.125034
 H         0.421436         1.802993        -1.354591
 H        -1.332916         2.897467         3.063227
 H        -1.987413         1.261178         2.782105
 H        -0.004072         2.776230         0.859792
