19
Iteration:  4537charge 0 multiplicity 1
 O         0.381575        -0.317277         0.142331
 C        -0.599974         0.752788         0.221469
 C        -2.108186         0.479167         0.307882
 C        -2.101932         2.076712         0.314612
 C        -1.698971         2.581982        -1.118986
 C        -0.670807         1.436107        -1.207617
 O        -2.831766         2.841236         1.318342
 C        -1.855075         2.353712         2.279827
 C        -0.822259         1.969466         1.131328
 H         0.194388        -0.794085         0.963466
 H        -2.527159        -0.078364        -0.556587
 H        -2.540483         0.276960         1.329135
 H        -2.622002         2.584253        -1.674191
 H        -1.180274         3.656947        -1.054757
 H        -0.881734         0.700522        -1.964729
 H         0.392649         1.826494        -1.407926
 H        -1.467964         3.013096         3.014757
 H        -2.364481         1.550848         2.967261
 H        -0.089911         2.727393         0.996082
