19
Iteration:   247
 O         0.368483        -0.070176         0.528667
 C        -0.698671         0.755894         0.131737
 C        -2.138137         0.472652         0.522365
 C        -2.188112         2.102269         0.241228
 C        -1.938631         2.449611        -1.248139
 C        -0.757623         1.259361        -1.350165
 O        -2.717784         2.751477         1.392327
 C        -1.515549         2.374488         2.145197
 C        -0.777226         2.081351         0.892009
 H         0.113735        -0.612233         1.280363
 H        -2.792347        -0.365796         0.068171
 H        -2.297274         0.304482         1.587677
 H        -2.822157         2.351162        -1.940157
 H        -1.499728         3.422817        -1.260681
 H        -1.076913         0.438579        -2.070029
 H         0.189010         1.718335        -1.594774
 H        -1.093286         3.251121         2.731585
 H        -1.722117         1.577005         2.918429
 H         0.180419         2.719793         0.666593
