19
Iteration:  3578charge 0 multiplicity 1
 O         0.078079        -0.382720         0.257411
 C        -0.568770         0.813962         0.170300
 C        -2.106912         0.534162         0.318555
 C        -2.145665         2.030956         0.286965
 C        -1.767404         2.440124        -1.101920
 C        -0.477879         1.629735        -1.268474
 O        -2.850833         2.726826         1.347276
 C        -1.744158         2.314383         2.262772
 C        -0.740077         2.064679         1.114817
 H         1.048184        -0.320881         0.355457
 H        -2.729486         0.031883        -0.489552
 H        -2.404055         0.163689         1.359774
 H        -2.512251         2.279851        -1.825770
 H        -1.607702         3.561988        -1.052567
 H        -0.363586         0.855677        -1.991330
 H         0.534397         2.143648        -1.147412
 H        -1.582659         3.154997         2.939016
 H        -1.932835         1.446665         2.972214
 H        -0.067207         2.879572         0.940474
