19
Iteration:  4585charge 0 multiplicity 1
 O         0.275545        -0.278964         0.406587
 C        -0.649056         0.718663         0.152022
 C        -2.173219         0.598155         0.165675
 C        -2.177566         2.155536         0.252728
 C        -1.801793         2.524494        -1.242808
 C        -0.490776         1.504820        -1.176613
 O        -2.816647         2.666402         1.492022
 C        -1.682650         2.292253         2.294762
 C        -0.823382         2.062202         1.027755
 H        -0.177573        -1.149736         0.338030
 H        -2.532747         0.119086        -0.754048
 H        -2.409579         0.110489         1.078711
 H        -2.524403         2.132756        -2.045476
 H        -1.518984         3.575299        -1.402100
 H        -0.424317         0.679737        -1.956264
 H         0.318237         2.130830        -1.291282
 H        -1.270304         3.176839         2.901284
 H        -1.875027         1.629623         3.138019
 H         0.070570         2.769230         1.075852
