19
Iteration:   730
 O         0.395053        -0.285655         0.245433
 C        -0.697094         0.680079         0.248150
 C        -2.148285         0.455493         0.544212
 C        -2.017570         2.134000         0.269667
 C        -1.854290         2.400472        -1.143237
 C        -0.768073         1.344286        -1.249589
 O        -2.858898         2.804486         1.292812
 C        -1.728545         2.571751         2.149286
 C        -0.679927         2.057665         1.041572
 H         0.756093        -0.260578         1.137792
 H        -2.601897        -0.165562        -0.290995
 H        -2.428508         0.306663         1.593907
 H        -2.694533         1.926816        -1.536955
 H        -1.624600         3.424966        -1.630875
 H        -0.997796         0.598917        -2.017135
 H         0.159858         1.754225        -1.522719
 H        -1.242006         3.414228         2.531369
 H        -1.907642         1.852342         3.056499
 H         0.146681         2.767177         0.875980
