19
Iteration:   675charge 0 multiplicity 1
 O         0.363071        -0.158902         0.644115
 C        -0.708753         0.747613         0.181880
 C        -2.168873         0.486381         0.432782
 C        -2.116498         2.128834         0.256013
 C        -2.046150         2.354992        -1.325844
 C        -0.700411         1.376735        -1.329190
 O        -2.742324         2.777774         1.363092
 C        -1.515493         2.413191         2.232486
 C        -0.667371         2.108200         0.914799
 H         0.060137        -1.087795         0.671887
 H        -2.690410        -0.076690        -0.396191
 H        -2.535342         0.205238         1.435109
 H        -2.786390         1.940632        -1.923446
 H        -1.877743         3.444769        -1.697608
 H        -0.891265         0.575067        -2.005904
 H         0.143143         1.899247        -1.698515
 H        -1.215294         3.162464         2.851353
 H        -1.741716         1.470735         2.765282
 H         0.112463         2.828808         0.674785
