19
Iteration:  4852charge 0 multiplicity 1
 O         0.197385        -0.297853         0.328162
 C        -0.698306         0.754109         0.118213
 C        -2.205939         0.572768         0.169464
 C        -2.165586         2.188774         0.273223
 C        -1.707194         2.470893        -1.165608
 C        -0.414824         1.550375        -1.161252
 O        -2.823651         2.678658         1.459638
 C        -1.736091         2.251365         2.240372
 C        -0.844221         2.002199         1.086074
 H         0.956095        -0.284749         0.903766
 H        -2.734463        -0.060910        -0.588376
 H        -2.385421         0.047728         1.104427
 H        -2.415461         2.086955        -1.923983
 H        -1.285783         3.473154        -1.393816
 H        -0.181930         1.085841        -2.054585
 H         0.510458         2.221899        -1.014697
 H        -1.507854         3.200451         2.813347
 H        -2.131746         1.428847         2.897075
 H        -0.129324         2.862388         1.062189
