19
Iteration:  4700
 O         0.275148        -0.323857         0.353880
 C        -0.663472         0.690166         0.209291
 C        -2.185911         0.602098         0.277140
 C        -2.111916         2.142078         0.294437
 C        -1.797613         2.498979        -1.223944
 C        -0.493933         1.507695        -1.184494
 O        -2.819561         2.722732         1.382329
 C        -1.790540         2.301188         2.277408
 C        -0.770041         2.009380         1.076661
 H         0.469114        -0.821785        -0.477463
 H        -2.645862         0.151370        -0.611190
 H        -2.308828         0.261559         1.286653
 H        -2.548458         2.356882        -1.984158
 H        -1.445662         3.556392        -1.254849
 H        -0.259605         0.941764        -2.050910
 H         0.294179         2.328318        -1.034784
 H        -1.522518         3.118935         2.914470
 H        -2.080381         1.556350         3.023107
 H        -0.064982         2.788507         0.835184
