19
Iteration:  3451charge 0 multiplicity 1
 O         0.113408        -0.358601         0.292478
 C        -0.572863         0.813861         0.197611
 C        -2.168713         0.615517         0.273711
 C        -2.050522         2.146748         0.271661
 C        -1.816776         2.494432        -1.196891
 C        -0.521039         1.506634        -1.277202
 O        -2.841836         2.617886         1.384513
 C        -1.758268         2.322462         2.343496
 C        -0.710399         2.020042         1.149192
 H         1.049696        -0.229635         0.557420
 H        -2.501480         0.085950        -0.522988
 H        -2.612529         0.126712         1.101739
 H        -2.564880         2.208677        -1.972671
 H        -1.598302         3.560789        -1.288109
 H        -0.485744         0.928753        -2.181185
 H         0.284034         2.209779        -1.411307
 H        -1.572801         3.289387         2.731986
 H        -1.897760         1.525540         3.038448
 H         0.147579         2.744872         1.114700
