19
Iteration:  3127charge 0 multiplicity 1
 O         0.322068        -0.256022         0.287918
 C        -0.695307         0.651241         0.109100
 C        -2.185016         0.426871         0.327447
 C        -2.095923         2.046072         0.292207
 C        -1.757368         2.528980        -1.094472
 C        -0.682655         1.495617        -1.295797
 O        -2.792137         2.883660         1.308890
 C        -1.713725         2.319878         2.326306
 C        -0.780148         1.952783         1.073562
 H         0.787401         0.143708         1.046469
 H        -2.896846        -0.068158        -0.279897
 H        -2.318825         0.020182         1.401680
 H        -2.637147         2.612089        -1.864663
 H        -1.453972         3.559587        -0.982555
 H        -0.684705         0.976691        -2.277288
 H         0.308663         1.971430        -1.126699
 H        -1.120625         3.117142         2.847448
 H        -2.191074         1.603665         2.952747
 H         0.066510         2.604720         1.000317
