19
Iteration:  1687charge 0 multiplicity 1
 O         0.270016        -0.268327         0.519215
 C        -0.645553         0.684304         0.168435
 C        -2.183791         0.464441         0.320983
 C        -2.151989         2.079686         0.282690
 C        -1.753472         2.480185        -1.109217
 C        -0.633907         1.391120        -1.303217
 O        -2.822650         2.732326         1.427131
 C        -1.623038         2.486987         2.222675
 C        -0.791318         2.142005         0.886836
 H         0.375113        -0.932495        -0.178635
 H        -2.479961        -0.161248        -0.530058
 H        -2.629824         0.094879         1.206261
 H        -2.567553         2.278503        -1.765463
 H        -1.500246         3.509724        -1.142598
 H        -0.806582         0.687321        -2.091386
 H         0.339355         1.864175        -1.395503
 H        -1.283423         3.467138         2.609735
 H        -1.638955         1.684496         2.911281
 H        -0.152199         2.984420         0.753021
