19
Iteration:  1743charge 0 multiplicity 1
 O         0.380066        -0.264548         0.341192
 C        -0.671831         0.704547         0.162579
 C        -2.232118         0.505012         0.372813
 C        -2.115705         2.191351         0.289686
 C        -1.850152         2.349619        -1.216465
 C        -0.663249         1.338092        -1.173474
 O        -2.758358         2.966488         1.285174
 C        -1.704642         2.391338         2.289644
 C        -0.746155         2.038522         1.108151
 H         0.898666        -0.369262        -0.467716
 H        -2.766018        -0.092096        -0.366862
 H        -2.369414         0.078848         1.349407
 H        -2.698386         1.827723        -1.709410
 H        -1.824240         3.289121        -1.559164
 H        -0.671020         0.498452        -1.870575
 H         0.241928         1.853644        -1.364794
 H        -1.340862         2.920040         3.108869
 H        -2.229201         1.463212         2.737991
 H         0.039445         2.735652         1.263581
