19
Iteration:   877
 O         0.288361        -0.328532         0.261571
 C        -0.611566         0.701506         0.150648
 C        -2.090092         0.583249         0.464557
 C        -2.067343         2.044743         0.307590
 C        -1.858676         2.363332        -1.210241
 C        -0.660793         1.412101        -1.235747
 O        -2.899478         2.761834         1.349416
 C        -1.723189         2.545059         2.199502
 C        -0.736099         1.997336         1.086519
 H         0.886034        -0.203799         1.023347
 H        -2.648961         0.019930        -0.247253
 H        -2.250331         0.278317         1.493881
 H        -2.772704         1.999714        -1.835017
 H        -1.635972         3.414694        -1.437479
 H        -0.531322         0.737426        -2.099599
 H         0.244698         2.125151        -1.135096
 H        -1.292210         3.585977         2.403884
 H        -1.942764         2.185552         3.168266
 H         0.106818         2.791219         0.865917
