19
Iteration:   733charge 0 multiplicity 1
 O         0.378754        -0.293223         0.241929
 C        -0.679403         0.639625         0.225582
 C        -2.131875         0.468653         0.543728
 C        -2.011019         2.147398         0.258786
 C        -1.858401         2.413464        -1.135607
 C        -0.778795         1.357135        -1.243419
 O        -2.873812         2.793872         1.292473
 C        -1.737862         2.567547         2.146833
 C        -0.658405         2.045700         1.054033
 H         0.794097        -0.114111         1.117493
 H        -2.612543        -0.134048        -0.195005
 H        -2.460487         0.329653         1.558967
 H        -2.767506         1.903274        -1.626341
 H        -1.658810         3.357358        -1.559025
 H        -0.965616         0.469452        -1.945460
 H         0.235372         1.822407        -1.409563
 H        -1.185012         3.443686         2.520600
 H        -1.922069         2.030684         3.027206
 H         0.150605         2.849784         0.889650
