19
Iteration:  3098
 O         0.355782        -0.212170         0.330198
 C        -0.622293         0.753131         0.196626
 C        -2.258539         0.609792         0.220444
 C        -2.174269         2.087683         0.258477
 C        -1.797015         2.480836        -1.174879
 C        -0.650183         1.412560        -1.214379
 O        -2.799106         2.773271         1.435109
 C        -1.580018         2.250527         2.286587
 C        -0.813041         2.044952         1.012387
 H         0.315264        -0.618965         1.226917
 H        -2.881782         0.148415        -0.633718
 H        -2.553320         0.182461         1.107766
 H        -2.492444         2.227493        -1.894085
 H        -1.474727         3.547270        -1.189754
 H        -0.914625         0.608485        -1.936921
 H         0.339528         1.778258        -1.421578
 H        -1.146989         3.005627         2.923664
 H        -1.949570         1.344556         2.792459
 H         0.017356         2.775446         0.892397
