19
Iteration:  3219charge 0 multiplicity 1
 O         0.377804        -0.217626         0.490114
 C        -0.727982         0.744386         0.115910
 C        -2.256822         0.453562         0.113771
 C        -2.090672         2.060513         0.274277
 C        -1.816949         2.572198        -1.014386
 C        -0.612169         1.460038        -1.203901
 O        -2.753715         2.808057         1.325111
 C        -1.610941         2.251811         2.327926
 C        -0.788695         2.032867         1.011504
 H         0.000649        -1.046680         0.141865
 H        -2.837845         0.025059        -0.764284
 H        -2.640870        -0.015264         1.015030
 H        -2.598975         2.358161        -1.711030
 H        -1.624268         3.686152        -1.174035
 H        -0.887365         0.795748        -2.023958
 H         0.321611         1.972219        -1.429641
 H        -1.260552         3.123387         2.818897
 H        -2.024856         1.480748         2.969032
 H        -0.153201         2.917853         0.758183
