19
Iteration:  1389
 O         0.297770        -0.147145         0.519062
 C        -0.699283         0.802706         0.202780
 C        -2.198537         0.473854         0.265143
 C        -2.188259         2.066336         0.215359
 C        -1.894552         2.459016        -1.226569
 C        -0.581433         1.411454        -1.220062
 O        -2.769515         2.831778         1.398768
 C        -1.605901         2.285201         2.196412
 C        -0.742591         2.014748         1.022718
 H         0.091024        -1.045038         0.266491
 H        -2.583536        -0.182028        -0.550393
 H        -2.335260         0.077970         1.254329
 H        -2.678348         2.243739        -1.954915
 H        -1.474826         3.530934        -1.175839
 H        -0.577997         0.602561        -1.989612
 H         0.448723         1.853990        -1.312782
 H        -1.195632         3.182872         2.791763
 H        -1.870257         1.468617         2.782884
 H         0.067032         2.807973         0.877072
