19
Iteration:  1289
 O         0.183811        -0.353976         0.498194
 C        -0.613478         0.745457         0.175175
 C        -2.093734         0.442318         0.269629
 C        -2.113657         2.077592         0.314811
 C        -1.853713         2.481792        -1.101313
 C        -0.558903         1.499853        -1.234946
 O        -2.848667         2.745617         1.322680
 C        -1.640199         2.423523         2.209118
 C        -0.809367         2.078910         1.007924
 H         1.073989        -0.316662         0.068896
 H        -2.837080        -0.052189        -0.412865
 H        -2.350098        -0.119169         1.211019
 H        -2.725329         2.125879        -1.741784
 H        -1.629827         3.542478        -1.288700
 H        -0.570250         0.892860        -2.227530
 H         0.249186         2.171960        -1.511688
 H        -1.198635         3.479532         2.393959
 H        -1.719809         1.821701         3.052455
 H        -0.046884         2.832233         0.784329
