19
Iteration:  4251
 O         0.344171        -0.303164         0.141824
 C        -0.668443         0.719838         0.169450
 C        -2.206378         0.532235         0.298778
 C        -2.070807         2.158942         0.312221
 C        -1.765902         2.409439        -1.202002
 C        -0.477304         1.442442        -1.129474
 O        -2.857941         2.874892         1.422522
 C        -1.744384         2.275703         2.328971
 C        -0.873385         2.088697         1.104999
 H         0.111022        -1.029643         0.766288
 H        -2.643988         0.091659        -0.645506
 H        -2.562524         0.269687         1.260258
 H        -2.488878         2.136302        -2.044252
 H        -1.336157         3.445092        -1.548162
 H        -0.552961         0.799941        -1.982796
 H         0.447792         1.947366        -1.365305
 H        -1.454764         3.101520         3.036996
 H        -2.154383         1.412484         2.882323
 H        -0.045886         2.801158         1.150038
