19
Iteration:  2490
 O         0.364476        -0.184001         0.312234
 C        -0.657682         0.704214         0.176497
 C        -2.168548         0.551484         0.466552
 C        -2.085415         2.201248         0.278451
 C        -1.839871         2.415140        -1.198132
 C        -0.749270         1.274575        -1.361014
 O        -2.776393         2.762967         1.427746
 C        -1.657411         2.443785         2.245286
 C        -0.708801         2.073540         1.063722
 H         0.162472        -1.131493         0.404293
 H        -2.716679        -0.282309        -0.149904
 H        -2.367096         0.186067         1.579329
 H        -2.745265         2.327778        -1.885433
 H        -1.404130         3.430936        -1.417544
 H        -1.014774         0.434881        -2.057105
 H         0.122651         1.808748        -1.759186
 H        -1.416241         3.224119         2.946114
 H        -2.249278         1.758610         2.922547
 H         0.050549         2.666137         0.660097
