19
Iteration:  2634charge 0 multiplicity 1
 O         0.382670        -0.211670         0.358802
 C        -0.688421         0.717374         0.163924
 C        -2.205333         0.518362         0.401385
 C        -2.144171         2.060528         0.272670
 C        -1.901120         2.421613        -1.122838
 C        -0.746302         1.328106        -1.224830
 O        -2.710969         2.803302         1.360590
 C        -1.592322         2.495476         2.231143
 C        -0.734242         2.016517         0.983594
 H         0.288461        -1.064496        -0.116174
 H        -2.964468        -0.056873        -0.318423
 H        -2.496326         0.218172         1.435399
 H        -2.769807         2.164191        -1.823092
 H        -1.703210         3.509613        -1.257010
 H        -0.828235         0.711878        -2.085589
 H         0.146241         2.035641        -1.363992
 H        -1.308033         3.519652         2.703584
 H        -1.665984         1.746254         3.051794
 H         0.123056         2.701601         0.942127
