19
Iteration:  1046charge 0 multiplicity 1
 O         0.265989        -0.288298         0.370375
 C        -0.626233         0.734995         0.132418
 C        -2.096945         0.538798         0.264057
 C        -2.050460         2.142662         0.324740
 C        -1.886757         2.410721        -1.249493
 C        -0.586896         1.410695        -1.203313
 O        -2.846507         2.667554         1.334432
 C        -1.661103         2.455898         2.341455
 C        -0.766233         2.185145         1.065049
 H        -0.063208        -0.873787         1.057664
 H        -2.571796        -0.093542        -0.545113
 H        -2.385996         0.191787         1.303386
 H        -2.746474         1.945161        -1.706537
 H        -1.737191         3.396713        -1.783631
 H        -0.638610         0.577036        -1.996001
 H         0.359583         1.982843        -1.284013
 H        -1.472686         3.338636         2.887008
 H        -1.849061         1.657150         3.101438
 H        -0.088425         2.910454         0.724991
