19
Iteration:  3475charge 0 multiplicity 1
 O         0.204916        -0.348006         0.388099
 C        -0.602383         0.764755         0.152166
 C        -2.150858         0.574350         0.242985
 C        -2.050678         2.180302         0.281283
 C        -1.784283         2.575320        -1.106927
 C        -0.603302         1.461834        -1.195783
 O        -2.857201         2.728897         1.357343
 C        -1.715166         2.172555         2.254741
 C        -0.756118         2.095667         1.073666
 H         1.095982         0.048778         0.442636
 H        -2.627256         0.094081        -0.676717
 H        -2.507577         0.059255         1.119018
 H        -2.455723         2.213139        -1.923978
 H        -1.509837         3.583459        -1.256127
 H        -1.091988         0.768658        -1.999867
 H         0.328672         1.809282        -1.603336
 H        -1.440245         2.948341         3.012897
 H        -1.950756         1.179251         2.654853
 H        -0.036993         2.947277         1.020489
