19
Iteration:  3056charge 0 multiplicity 1
 O         0.249877        -0.288662         0.411752
 C        -0.655808         0.782533         0.075227
 C        -2.094611         0.619928         0.360660
 C        -2.105322         2.077772         0.331095
 C        -1.865033         2.418925        -1.125997
 C        -0.579146         1.524076        -1.295206
 O        -2.839205         2.742420         1.350669
 C        -1.664422         2.253293         2.266147
 C        -0.681935         2.058134         1.041537
 H        -0.243150        -1.128338         0.261535
 H        -2.832415         0.062057        -0.339350
 H        -2.267793         0.308824         1.309448
 H        -2.594226         2.197944        -1.849674
 H        -1.633431         3.543257        -1.163991
 H        -0.849754         0.803248        -2.083232
 H         0.324010         2.096601        -1.585597
 H        -1.392117         3.236207         2.652768
 H        -1.817635         1.444168         3.074847
 H        -0.085291         3.004824         0.823523
