19
Iteration:  4903charge 0 multiplicity 1
 O         0.238857        -0.239799         0.509633
 C        -0.612223         0.694775         0.103377
 C        -2.093890         0.560588         0.224877
 C        -2.022731         2.137053         0.277106
 C        -1.735010         2.661640        -1.080713
 C        -0.666115         1.509801        -1.278635
 O        -2.875377         2.731632         1.276140
 C        -1.836580         2.137172         2.294181
 C        -0.724909         1.918400         1.089156
 H         1.160261        -0.052582         0.219467
 H        -2.635956         0.218832        -0.593140
 H        -2.503609         0.129092         1.208708
 H        -2.413024         2.827566        -1.936334
 H        -1.275320         3.647874        -0.916247
 H        -0.922275         0.604360        -2.023786
 H         0.311862         1.914566        -1.569570
 H        -1.623073         3.040629         2.957465
 H        -2.358264         1.294620         2.627461
 H         0.155070         2.712566         1.042918
