19
Iteration:  3695
 O         0.140510        -0.356776         0.327455
 C        -0.690494         0.755271         0.084639
 C        -2.151410         0.527029         0.151280
 C        -2.139373         2.051819         0.403814
 C        -1.761136         2.377300        -1.081930
 C        -0.450731         1.612666        -1.239306
 O        -2.894245         2.741379         1.403588
 C        -1.700410         2.419506         2.303761
 C        -0.743467         1.966617         1.091597
 H         1.054377        -0.074153         0.132705
 H        -2.605607         0.268811        -0.821844
 H        -2.369147        -0.144431         1.028270
 H        -2.453795         2.316237        -1.984087
 H        -1.433894         3.439718        -1.133140
 H        -0.238929         1.023664        -2.198001
 H         0.406113         2.219291        -1.045689
 H        -1.412043         3.355111         2.832396
 H        -1.863099         1.781527         3.186462
 H         0.023621         2.772104         0.881632
