19
Iteration:   198
 O         0.305936        -0.280966         0.184330
 C        -0.586881         0.747531         0.255700
 C        -2.141972         0.506422         0.386744
 C        -2.104173         2.054582         0.360294
 C        -1.955102         2.206515        -1.220389
 C        -0.646124         1.300394        -1.198775
 O        -2.811379         2.916672         1.385085
 C        -1.703347         2.591641         2.245215
 C        -0.692836         2.106245         1.065736
 H         1.170687        -0.095158         0.615896
 H        -2.680656         0.041223        -0.389163
 H        -2.475612        -0.125218         1.246839
 H        -2.797269         1.780896        -1.690212
 H        -1.770718         3.275567        -1.542392
 H        -0.745748         0.375096        -1.688379
 H         0.247880         1.840967        -1.583633
 H        -1.359591         3.468749         2.735188
 H        -1.916557         1.903417         3.017348
 H        -0.201336         2.852511         0.569924
