19
Iteration:   962
 O         0.450833        -0.110439         0.514544
 C        -0.678172         0.731271         0.192309
 C        -2.221431         0.567044         0.348116
 C        -2.053498         2.210023         0.329552
 C        -1.797385         2.423905        -1.191966
 C        -0.790991         1.284441        -1.275602
 O        -2.804683         2.767013         1.287334
 C        -1.713649         2.275961         2.252235
 C        -0.772175         2.053005         0.998420
 H         0.782510        -0.487565        -0.335998
 H        -2.617020        -0.020603        -0.479447
 H        -2.471907         0.131553         1.335501
 H        -2.767338         2.326630        -1.799558
 H        -1.267209         3.315724        -1.386036
 H        -1.147280         0.399514        -1.864201
 H         0.067729         1.599303        -1.807610
 H        -1.440049         3.298650         2.727737
 H        -1.900619         1.378572         2.867471
 H         0.171858         2.659898         1.220859
