19
Iteration:  4312charge 0 multiplicity 1
 O         0.225549        -0.340636         0.401228
 C        -0.612837         0.739708         0.094373
 C        -2.172217         0.498286         0.227533
 C        -2.169753         2.105880         0.183058
 C        -1.734458         2.581792        -1.157366
 C        -0.585013         1.497919        -1.238399
 O        -2.824698         2.752612         1.491798
 C        -1.698209         2.310466         2.288528
 C        -0.765386         2.032305         1.028509
 H         0.727901        -0.321086         1.238049
 H        -2.490155         0.029567        -0.710790
 H        -2.694128        -0.008932         1.061275
 H        -2.414798         2.576357        -2.016658
 H        -1.201924         3.441786        -1.073068
 H        -1.054815         0.839188        -2.046981
 H         0.418037         1.890027        -1.418724
 H        -1.426610         3.167267         2.993988
 H        -2.015499         1.412029         2.843194
 H         0.007535         2.828115         0.864525
