19
Iteration:  2933
 O         0.215649        -0.313431         0.401381
 C        -0.701739         0.686345         0.132313
 C        -2.174991         0.556065         0.237144
 C        -2.079493         2.099747         0.289900
 C        -1.878290         2.375636        -1.156436
 C        -0.574422         1.498103        -1.279353
 O        -2.767905         2.723830         1.413789
 C        -1.552678         2.434409         2.303482
 C        -0.821853         2.021343         1.008376
 H         0.902239         0.226866         0.844752
 H        -2.862586         0.167600        -0.513065
 H        -2.479037         0.012711         1.267867
 H        -2.725146         2.033758        -1.793920
 H        -1.707141         3.439695        -1.337596
 H        -0.640105         0.854702        -2.216156
 H         0.346949         2.034228        -1.284254
 H        -1.251224         3.490262         2.593226
 H        -1.767237         1.816204         3.258162
 H        -0.162233         2.931877         0.850496
