19
Iteration:  3741charge 0 multiplicity 1
 O         0.262643        -0.295650         0.311258
 C        -0.601787         0.757979         0.150868
 C        -2.208074         0.551439         0.338629
 C        -2.073889         2.112154         0.305004
 C        -1.692292         2.532332        -1.075682
 C        -0.632464         1.440438        -1.264060
 O        -2.893179         2.760433         1.343702
 C        -1.780828         2.273128         2.207929
 C        -0.710945         2.018824         1.136534
 H         1.084090        -0.307959        -0.204365
 H        -2.836187         0.250138        -0.563091
 H        -2.382424         0.036920         1.315199
 H        -2.465976         2.530539        -1.773328
 H        -1.281421         3.590602        -1.134686
 H        -0.780201         0.725562        -2.029109
 H         0.341366         1.971179        -1.509607
 H        -1.578094         2.948515         3.005666
 H        -2.190091         1.399430         2.787850
 H        -0.005272         2.825178         1.174632
