19
Iteration:  2155
 O         0.344004        -0.285504         0.208221
 C        -0.610799         0.666284         0.180753
 C        -2.227030         0.513898         0.424336
 C        -2.128515         2.143070         0.317915
 C        -1.858965         2.421528        -1.126373
 C        -0.641794         1.358191        -1.152218
 O        -2.834959         2.808926         1.362060
 C        -1.650764         2.499953         2.212504
 C        -0.741051         2.011757         0.965954
 H         0.621770        -0.497614         1.106681
 H        -2.760719         0.101867        -0.398355
 H        -2.629283         0.201026         1.407035
 H        -2.685827         2.188302        -1.855161
 H        -1.464410         3.392138        -1.334355
 H        -0.730299         0.620955        -1.962539
 H         0.356791         1.825740        -1.189737
 H        -1.376503         3.571134         2.489858
 H        -1.882422         1.858115         3.124928
 H         0.131435         2.631009         0.743148
