19
Iteration:   745
 O         0.330609        -0.330380         0.267581
 C        -0.621972         0.708043         0.177918
 C        -2.106411         0.566288         0.476885
 C        -2.103986         2.097560         0.361309
 C        -1.946491         2.351251        -1.192324
 C        -0.685128         1.314558        -1.214198
 O        -2.843221         2.767040         1.265320
 C        -1.667150         2.593745         2.220491
 C        -0.706500         2.011539         1.065521
 H         1.059418        -0.003821         0.832812
 H        -2.826661         0.027734        -0.075085
 H        -2.281298         0.333477         1.528559
 H        -2.840849         2.320905        -1.932051
 H        -1.589726         3.341759        -1.239365
 H        -0.768947         0.520544        -2.036990
 H         0.314614         1.855887        -1.433377
 H        -1.472286         3.681475         2.353471
 H        -2.042599         2.090508         3.038657
 H         0.119051         2.764142         0.821555
