19
Iteration:  2237charge 0 multiplicity 1
 O         0.385930        -0.174493         0.343716
 C        -0.686509         0.733562         0.151232
 C        -2.187042         0.504800         0.316180
 C        -2.121333         2.127904         0.331375
 C        -1.855880         2.335466        -1.196625
 C        -0.692096         1.311797        -1.294023
 O        -2.703899         2.883720         1.411388
 C        -1.661495         2.453915         2.283362
 C        -0.795651         2.035483         1.043428
 H         0.119432        -1.124407         0.400996
 H        -2.925600        -0.107896        -0.368568
 H        -2.479567         0.093161         1.289847
 H        -2.724798         2.104358        -1.819787
 H        -1.532059         3.398556        -1.400377
 H        -0.693887         0.471488        -2.039045
 H         0.320622         1.692363        -1.394127
 H        -1.285779         3.130526         3.023966
 H        -2.091962         1.658513         2.940798
 H        -0.190547         2.958341         0.803579
