19
Iteration:  3090
 O         0.335897        -0.242983         0.348103
 C        -0.650774         0.779632         0.232095
 C        -2.194005         0.571021         0.184691
 C        -2.112723         2.158582         0.269535
 C        -1.842482         2.462346        -1.238391
 C        -0.705620         1.415426        -1.227312
 O        -2.811834         2.764617         1.471970
 C        -1.591806         2.198275         2.289950
 C        -0.770745         2.117081         1.010642
 H         0.194739        -0.922825         1.050570
 H        -2.578057         0.046852        -0.753143
 H        -2.661370         0.255353         1.121626
 H        -2.560270         2.303965        -2.062606
 H        -1.345031         3.483375        -1.304028
 H        -0.797028         0.534469        -1.852738
 H         0.390264         1.729711        -1.418075
 H        -1.320908         3.078669         2.903462
 H        -1.811499         1.355312         3.069785
 H        -0.058619         3.011338         1.006239
