19
Iteration:  3084charge 0 multiplicity 1
 O         0.321485        -0.261464         0.352467
 C        -0.701124         0.809709         0.236202
 C        -2.126163         0.533148         0.221364
 C        -2.089657         2.232693         0.283215
 C        -1.843413         2.472986        -1.257320
 C        -0.659504         1.373694        -1.250952
 O        -2.803250         2.725292         1.492694
 C        -1.647680         2.215123         2.299525
 C        -0.734315         2.132053         1.023338
 H        -0.090254        -0.966708         0.888690
 H        -2.351750         0.038795        -0.690261
 H        -2.821438         0.172364         1.062919
 H        -2.717573         2.428564        -1.991922
 H        -1.392661         3.407466        -1.544684
 H        -0.827023         0.533819        -1.958281
 H         0.212646         1.937000        -1.544924
 H        -1.416489         3.081675         2.930577
 H        -1.730495         1.382787         2.944168
 H        -0.110278         2.979132         0.859510
