19
Iteration:  3470
 O         0.177012        -0.347291         0.364445
 C        -0.660108         0.780628         0.185206
 C        -2.092105         0.596805         0.223567
 C        -2.027170         2.162046         0.261529
 C        -1.799531         2.545577        -1.107293
 C        -0.632882         1.488865        -1.201570
 O        -2.863200         2.680026         1.355572
 C        -1.721110         2.212663         2.242368
 C        -0.702930         2.093553         1.095791
 H         1.086304        -0.009762         0.490051
 H        -2.622606         0.194421        -0.603808
 H        -2.506888         0.100262         1.125485
 H        -2.643487         2.317231        -1.766268
 H        -1.370336         3.575403        -1.415336
 H        -0.831428         0.663215        -1.817257
 H         0.389153         1.826189        -1.526266
 H        -1.421000         2.902265         2.999242
 H        -2.046150         1.255424         2.658568
 H        -0.012299         2.931668         1.079215
