19
Iteration:   945charge 0 multiplicity 1
 O         0.331193        -0.162335         0.566875
 C        -0.624209         0.779217         0.205628
 C        -2.139532         0.534877         0.418040
 C        -2.128437         2.044338         0.202903
 C        -1.834939         2.480666        -1.238470
 C        -0.733865         1.302827        -1.390815
 O        -2.774997         2.785915         1.388175
 C        -1.717194         2.307113         2.236148
 C        -0.714255         2.064866         1.025632
 H         0.940590        -0.235893        -0.207041
 H        -2.811492        -0.027275        -0.242984
 H        -2.522204         0.386027         1.396292
 H        -2.656782         2.316244        -1.923626
 H        -1.467104         3.569547        -1.153707
 H        -0.973288         0.572051        -2.146218
 H         0.336967         1.644718        -1.731521
 H        -1.352581         2.944572         3.000656
 H        -2.091467         1.422806         2.743774
 H        -0.171236         2.910885         0.623440
