19
Iteration:  4793charge 0 multiplicity 1
 O         0.360504        -0.239080         0.231491
 C        -0.668298         0.759994         0.163419
 C        -2.206656         0.508594         0.238178
 C        -2.149841         2.137156         0.299681
 C        -1.603024         2.534771        -1.087778
 C        -0.531217         1.452514        -1.240707
 O        -2.842012         2.776465         1.314976
 C        -1.839786         2.257012         2.362482
 C        -0.832928         2.030229         1.116319
 H         0.111643        -1.014614         0.760737
 H        -2.637003        -0.033564        -0.554139
 H        -2.203294         0.052733         1.243958
 H        -2.400011         2.595586        -1.865991
 H        -1.216538         3.537771        -1.161212
 H        -0.940115         0.640338        -1.914247
 H         0.443313         1.808450        -1.438010
 H        -1.736464         3.047861         3.160374
 H        -2.249208         1.397486         2.896481
 H        -0.065496         2.857423         1.039299
