19
Iteration:  2193charge 0 multiplicity 1
 O         0.233480        -0.289736         0.476274
 C        -0.642722         0.774021         0.113120
 C        -2.111111         0.535421         0.353451
 C        -2.092448         2.102456         0.284843
 C        -1.899229         2.444156        -1.146805
 C        -0.670377         1.358892        -1.304071
 O        -2.783357         2.703620         1.383286
 C        -1.626274         2.424372         2.308251
 C        -0.654995         2.145819         0.870933
 H        -0.265070        -0.710885         1.214239
 H        -2.647922        -0.004810        -0.509164
 H        -2.427647         0.017525         1.272022
 H        -2.800567         2.257436        -1.725819
 H        -1.520392         3.476917        -1.388644
 H        -0.856653         0.651759        -2.127568
 H         0.190640         1.945064        -1.617347
 H        -1.331175         3.318205         2.851096
 H        -1.672304         1.592157         3.003197
 H        -0.080674         3.056879         0.656672
