19
Iteration:   816charge 0 multiplicity 1
 O         0.408582        -0.057094         0.586923
 C        -0.698156         0.681886         0.139740
 C        -2.198650         0.565460         0.401573
 C        -2.031277         2.167009         0.267457
 C        -1.899081         2.381624        -1.217524
 C        -0.745810         1.302435        -1.376040
 O        -2.791377         2.779938         1.342945
 C        -1.644697         2.367806         2.285395
 C        -0.705789         2.036327         0.973525
 H         0.289086        -1.002985         0.320317
 H        -2.905084         0.095177        -0.377882
 H        -2.417078         0.057804         1.352362
 H        -2.726603         1.994593        -1.706258
 H        -1.699871         3.393959        -1.701014
 H        -0.918589         0.555297        -2.133808
 H         0.234889         1.681585        -1.563879
 H        -1.334240         3.208794         2.839147
 H        -1.976795         1.384593         2.786919
 H         0.087021         2.694552         0.763415
