19
Iteration:  2247
 O         0.386976        -0.170737         0.297555
 C        -0.656950         0.701839         0.147820
 C        -2.170004         0.491715         0.338496
 C        -2.153377         2.072719         0.310189
 C        -1.840613         2.327276        -1.114095
 C        -0.643829         1.311548        -1.250323
 O        -2.749247         2.967810         1.400956
 C        -1.683048         2.471159         2.237981
 C        -0.812799         1.991136         1.090081
 H         0.090112        -1.095066         0.170683
 H        -2.796825         0.073706        -0.568331
 H        -2.351763         0.096949         1.350324
 H        -2.719154         2.063946        -1.729351
 H        -1.528004         3.386844        -1.377521
 H        -1.004572         0.498532        -1.914917
 H         0.244791         1.812709        -1.637848
 H        -1.204166         3.298191         2.811781
 H        -1.957231         1.576319         2.830829
 H        -0.023414         2.783497         0.907842
