19
Iteration:  4465charge 0 multiplicity 1
 O         0.201369        -0.311297         0.500983
 C        -0.590656         0.773171         0.085890
 C        -2.123092         0.530472         0.193230
 C        -2.140038         2.070510         0.284548
 C        -1.810192         2.584944        -1.045932
 C        -0.575426         1.513153        -1.283367
 O        -2.775496         2.730641         1.404514
 C        -1.662149         2.292702         2.220111
 C        -0.804205         2.004371         0.999916
 H        -0.239830        -0.783790         1.209985
 H        -2.555599        -0.040284        -0.668949
 H        -2.290846         0.021259         1.103246
 H        -2.515269         2.500804        -1.967313
 H        -1.492461         3.620994        -1.145401
 H        -0.568139         0.832855        -2.263885
 H         0.232042         2.186417        -1.547153
 H        -1.369562         3.048536         3.022424
 H        -1.925998         1.400794         2.771709
 H        -0.198655         2.914430         0.686619
