19
Iteration:  1166charge 0 multiplicity 1
 O         0.219110        -0.277839         0.314725
 C        -0.614898         0.763406         0.234254
 C        -2.120550         0.527728         0.383016
 C        -2.160749         2.030551         0.273952
 C        -1.834612         2.374749        -1.223157
 C        -0.498319         1.517534        -1.216036
 O        -2.848510         2.704190         1.341962
 C        -1.622241         2.460623         2.282219
 C        -0.774136         2.076442         0.982613
 H        -0.160094        -1.103271         0.683401
 H        -2.757669        -0.195561        -0.176709
 H        -2.374306         0.555481         1.455530
 H        -2.578366         2.078900        -2.005353
 H        -1.783031         3.485825        -1.349324
 H        -0.531393         0.700126        -1.992786
 H         0.382099         2.114789        -1.123961
 H        -1.385998         3.442786         2.521811
 H        -1.749607         1.883521         3.208545
 H        -0.064913         2.846140         0.802030
