19
Iteration:  4181
 O         0.298725        -0.255760         0.362770
 C        -0.627115         0.753776         0.167256
 C        -2.248882         0.534103         0.126471
 C        -2.181716         2.162670         0.253531
 C        -1.718608         2.544010        -1.065171
 C        -0.544776         1.401982        -1.220450
 O        -2.829358         2.705259         1.478312
 C        -1.683667         2.269845         2.246331
 C        -0.794080         2.046223         0.976418
 H         0.425165        -0.532044         1.288234
 H        -2.818582         0.412564        -0.775470
 H        -2.760900         0.235427         1.100133
 H        -2.469092         2.460194        -1.923196
 H        -1.430181         3.554346        -1.029502
 H        -0.644586         0.622291        -2.004357
 H         0.481646         1.798407        -1.324954
 H        -1.324384         3.138054         2.922875
 H        -1.894145         1.343503         2.818921
 H        -0.070443         2.866421         0.793724
