19
Iteration:  2545charge 0 multiplicity 1
 O         0.263998        -0.259310         0.468912
 C        -0.630439         0.658318         0.086501
 C        -2.175177         0.465408         0.418791
 C        -2.051449         2.103740         0.286114
 C        -1.949387         2.375387        -1.237974
 C        -0.684355         1.485296        -1.284721
 O        -2.785007         2.755684         1.420015
 C        -1.519908         2.511796         2.261189
 C        -0.744487         2.075468         1.007823
 H         0.242641        -1.022574        -0.161327
 H        -2.903531        -0.015216        -0.376311
 H        -2.490729         0.111614         1.514787
 H        -2.800451         1.943875        -1.865694
 H        -1.896672         3.466387        -1.488852
 H        -0.683349         0.821330        -2.167845
 H         0.227192         2.181128        -1.438980
 H        -1.034872         3.461659         2.585917
 H        -1.879104         1.889361         3.170344
 H         0.040547         2.760749         0.699332
