19
Iteration:  1158charge 0 multiplicity 1
 O         0.230508        -0.283481         0.285005
 C        -0.658756         0.758904         0.244049
 C        -2.086738         0.545693         0.418201
 C        -2.186586         2.091802         0.323382
 C        -1.816953         2.355393        -1.297250
 C        -0.535874         1.507555        -1.168478
 O        -2.881561         2.683037         1.341220
 C        -1.581893         2.446762         2.217210
 C        -0.782247         2.120643         1.007282
 H        -0.271494        -0.933781         0.825895
 H        -2.757890        -0.088291        -0.234713
 H        -2.223645         0.224820         1.519529
 H        -2.604337         2.042713        -2.058634
 H        -1.589121         3.392450        -1.406650
 H        -0.346285         0.684415        -2.031661
 H         0.370274         2.094120        -1.155349
 H        -1.276369         3.444885         2.760027
 H        -1.793804         1.680900         2.914157
 H         0.113664         2.789570         1.046001
