19
Iteration:  4720charge 0 multiplicity 1
 O         0.187706        -0.367664         0.536762
 C        -0.633227         0.784081         0.145381
 C        -2.114279         0.485277         0.206364
 C        -2.129719         2.107143         0.324440
 C        -1.825256         2.511632        -1.067003
 C        -0.477517         1.653878        -1.271687
 O        -2.833929         2.774465         1.344476
 C        -1.658351         2.236513         2.203726
 C        -0.806344         2.030711         1.028192
 H         0.144064        -0.883397        -0.274547
 H        -2.532840         0.039977        -0.693329
 H        -2.373204         0.076538         1.240462
 H        -2.373578         2.115453        -1.920304
 H        -1.694471         3.576684        -1.305704
 H        -0.686806         1.030669        -2.089974
 H         0.480924         2.279991        -1.368044
 H        -1.451235         3.056772         2.972679
 H        -2.029340         1.314849         2.676276
 H         0.008909         2.817986         0.978269
