19
Iteration:  2948
 O         0.199205        -0.336037         0.469848
 C        -0.596325         0.808640         0.064522
 C        -2.195312         0.499609         0.282850
 C        -2.167709         2.059193         0.397039
 C        -1.847913         2.459828        -1.093209
 C        -0.623260         1.437940        -1.314627
 O        -2.829353         2.770558         1.424183
 C        -1.631619         2.420832         2.214679
 C        -0.676770         2.062138         0.960818
 H         1.126556        -0.126798         0.701979
 H        -2.691604        -0.014124        -0.604036
 H        -2.367912         0.014562         1.152551
 H        -2.613946         2.215184        -1.797961
 H        -1.620436         3.514324        -1.349405
 H        -0.769645         0.660142        -2.052430
 H         0.300391         1.976305        -1.669094
 H        -1.224481         3.138413         2.873984
 H        -1.877609         1.555570         2.810494
 H         0.098628         2.779446         0.629941
