19
Iteration:  1569charge 0 multiplicity 1
 O         0.351130        -0.275486         0.413724
 C        -0.652055         0.702694         0.252126
 C        -2.224740         0.558631         0.299840
 C        -2.096972         2.076929         0.309931
 C        -1.793640         2.416021        -1.099808
 C        -0.602494         1.429004        -1.246107
 O        -2.898893         2.778444         1.378464
 C        -1.612684         2.517916         2.156934
 C        -0.795512         1.966385         1.038885
 H         0.687692        -0.536384        -0.485901
 H        -2.746878        -0.023842        -0.466785
 H        -2.526682         0.176632         1.247126
 H        -2.813758         2.129203        -1.680244
 H        -1.546038         3.405611        -1.353426
 H        -0.699840         0.581507        -1.969411
 H         0.281831         2.009536        -1.485603
 H        -1.321099         3.485163         2.473733
 H        -1.782161         1.771860         3.029605
 H        -0.013886         2.587848         0.623517
