19
Iteration:  1498charge 0 multiplicity 1
 O         0.336407        -0.121774         0.482310
 C        -0.636043         0.751229         0.208038
 C        -2.255579         0.552419         0.310531
 C        -2.043972         2.128759         0.243543
 C        -1.887939         2.350311        -1.203634
 C        -0.616268         1.392085        -1.288495
 O        -2.712701         2.826374         1.340160
 C        -1.702948         2.302847         2.278134
 C        -0.789519         2.013089         1.070678
 H         0.480766        -0.767308        -0.248942
 H        -2.926979         0.043118        -0.411717
 H        -2.679333         0.282779         1.291146
 H        -2.718960         1.976196        -1.785784
 H        -1.692554         3.419567        -1.588001
 H        -0.878866         0.512272        -1.890831
 H         0.396524         1.794187        -1.627373
 H        -1.272277         3.052634         3.122869
 H        -2.076224         1.404068         2.765040
 H         0.002417         2.776164         0.933797
