19
Iteration:   339charge 0 multiplicity 1
 O         0.434643        -0.212483         0.322642
 C        -0.626827         0.729963         0.245742
 C        -2.089903         0.444816         0.537197
 C        -2.141259         2.078588         0.305334
 C        -1.968770         2.258881        -1.173007
 C        -0.780185         1.294479        -1.249952
 O        -2.699366         2.999980         1.264374
 C        -1.619714         2.502984         2.223679
 C        -0.835091         2.073414         1.009393
 H         0.135972        -0.883218        -0.340499
 H        -2.650622        -0.089667        -0.193261
 H        -2.214383        -0.002474         1.543604
 H        -2.812268         1.853178        -1.672886
 H        -1.747091         3.349857        -1.463572
 H        -0.935050         0.437838        -1.894635
 H         0.066417         1.965447        -1.524151
 H        -1.220824         3.288548         2.894830
 H        -1.998309         1.645015         2.839033
 H        -0.217433         2.895617         0.777570
