19
Iteration:   648charge 0 multiplicity 1
 O         0.296681        -0.223978         0.606495
 C        -0.677482         0.767938         0.191985
 C        -2.110886         0.557031         0.400530
 C        -2.129388         2.103995         0.345259
 C        -1.973517         2.306927        -1.157236
 C        -0.672626         1.338143        -1.320205
 O        -2.815522         2.732317         1.364762
 C        -1.535650         2.516291         2.115982
 C        -0.688834         2.094835         0.893585
 H         0.492440        -0.905349        -0.061167
 H        -2.623458         0.080302        -0.428075
 H        -2.512867         0.168336         1.334342
 H        -2.857433         1.968120        -1.825256
 H        -1.785348         3.319872        -1.409651
 H        -0.876568         0.452047        -2.024962
 H         0.118906         2.039677        -1.724949
 H        -1.128369         3.545289         2.554386
 H        -1.709720         1.760302         2.913835
 H         0.065090         2.863662         0.644201
