19
Iteration:  4864charge 0 multiplicity 1
 O         0.206119        -0.347165         0.374940
 C        -0.639317         0.811405         0.131620
 C        -2.175035         0.583652         0.172727
 C        -2.168273         2.111046         0.274707
 C        -1.663280         2.513892        -1.217201
 C        -0.443692         1.512186        -1.211763
 O        -2.915641         2.731229         1.469865
 C        -1.754005         2.206645         2.333343
 C        -0.821842         2.041158         1.018374
 H         0.865813         0.186694         0.869250
 H        -2.695354         0.159396        -0.770280
 H        -2.448282         0.133593         1.100596
 H        -2.455146         2.384137        -1.982545
 H        -1.371019         3.603122        -1.306223
 H        -0.483787         0.737015        -1.950363
 H         0.547809         2.089378        -1.196473
 H        -1.305745         2.878997         3.074257
 H        -1.911430         1.231593         2.892124
 H         0.001595         2.731053         0.869368
