19
Iteration:  4506charge 0 multiplicity 1
 O         0.332392        -0.234248         0.240962
 C        -0.664066         0.776351         0.142454
 C        -2.254376         0.644094         0.209407
 C        -2.080302         2.088288         0.304869
 C        -1.742735         2.429093        -1.174601
 C        -0.548664         1.425142        -1.176279
 O        -2.796170         2.771165         1.408582
 C        -1.783350         2.254205         2.334320
 C        -0.764689         1.988461         1.068338
 H         0.377031        -0.169782         1.218014
 H        -2.874843         0.236285        -0.619446
 H        -2.709730         0.346176         1.132022
 H        -2.678499         2.329977        -1.719123
 H        -1.503719         3.511851        -1.451955
 H        -0.558733         0.630496        -1.915867
 H         0.469796         1.817952        -1.217270
 H        -1.353940         2.976790         2.985477
 H        -2.257079         1.349593         2.822198
 H        -0.008241         2.756900         1.002066
