19
Iteration:  1064
 O         0.349864        -0.213570         0.321578
 C        -0.635653         0.788140         0.239998
 C        -2.171601         0.548958         0.315675
 C        -2.157307         2.125352         0.266780
 C        -1.761662         2.372907        -1.188690
 C        -0.590028         1.327119        -1.295521
 O        -2.887516         2.750883         1.470038
 C        -1.711777         2.414892         2.200031
 C        -0.769022         2.068586         1.012965
 H         0.361546        -0.538848         1.228714
 H        -2.683767         0.092017        -0.519140
 H        -2.592832         0.143636         1.220281
 H        -2.507827         2.183345        -1.968515
 H        -1.360425         3.417642        -1.262508
 H        -0.830057         0.543261        -1.969369
 H         0.414337         1.757948        -1.603251
 H        -1.337159         3.253123         2.797092
 H        -1.950218         1.618335         2.953120
 H         0.070944         2.829051         0.978562
