19
Iteration:   614
 O         0.379248        -0.249782         0.329000
 C        -0.656576         0.718244         0.211428
 C        -2.120145         0.498353         0.562421
 C        -2.238062         2.085456         0.328876
 C        -1.832444         2.265225        -1.179535
 C        -0.657699         1.251883        -1.238549
 O        -2.803454         2.913845         1.363123
 C        -1.620614         2.551585         2.184724
 C        -0.870724         2.082688         0.961687
 H         0.721709        -0.209379        -0.566335
 H        -2.504153        -0.089825        -0.263989
 H        -2.469051         0.187227         1.521538
 H        -2.630585         2.146297        -2.015983
 H        -1.302702         3.163734        -1.247826
 H        -0.850452         0.362356        -1.961315
 H         0.350081         1.780676        -1.521839
 H        -1.071920         3.562278         2.634217
 H        -1.963211         1.924702         3.034971
 H        -0.122103         2.753582         0.486555
