19
Iteration:  3286
 O         0.157777        -0.359513         0.180630
 C        -0.586121         0.828905         0.180845
 C        -2.159578         0.484353         0.217561
 C        -2.097474         2.101916         0.314648
 C        -1.766537         2.477002        -1.126800
 C        -0.577652         1.484434        -1.184960
 O        -2.876102         2.743823         1.365348
 C        -1.698615         2.376837         2.296054
 C        -0.724222         2.033593         1.153403
 H         0.771778        -0.306907         0.933021
 H        -2.592065        -0.099065        -0.580039
 H        -2.706453         0.101436         1.209116
 H        -2.471194         2.358104        -1.926408
 H        -1.446769         3.581607        -1.110668
 H        -0.452061         0.743288        -1.937391
 H         0.325969         2.166985        -1.149641
 H        -1.366716         3.255828         2.808032
 H        -1.991254         1.472040         2.861635
 H         0.154653         2.773675         1.077394
