19
Iteration:  4996charge 0 multiplicity 1
 O         0.222621        -0.383962         0.349429
 C        -0.633067         0.712318         0.191645
 C        -2.080287         0.442052         0.173671
 C        -2.058350         2.172136         0.315552
 C        -1.717639         2.583951        -1.076852
 C        -0.508851         1.581293        -1.220159
 O        -2.945344         2.774470         1.342483
 C        -1.817752         2.229379         2.243729
 C        -0.772008         2.050610         1.086358
 H         1.004970        -0.146125         0.870398
 H        -2.547740        -0.116430        -0.667606
 H        -2.418900         0.124135         1.151024
 H        -2.521149         2.536660        -1.826636
 H        -1.333273         3.604116        -1.042723
 H        -0.750380         0.934312        -2.052550
 H         0.457845         2.079151        -1.483657
 H        -1.536301         2.982588         2.916913
 H        -2.206937         1.234663         2.666012
 H        -0.117515         2.897886         0.967621
