19
Iteration:  2287
 O         0.233587        -0.288230         0.416477
 C        -0.632976         0.728092         0.148931
 C        -2.127390         0.559216         0.418127
 C        -2.103192         2.103572         0.319426
 C        -1.870180         2.420336        -1.153123
 C        -0.657619         1.429268        -1.284033
 O        -2.797145         2.745996         1.393275
 C        -1.686406         2.459705         2.234848
 C        -0.692057         2.067484         0.938611
 H         0.365635        -0.833452        -0.377421
 H        -2.736148        -0.169380        -0.052303
 H        -2.335722         0.213298         1.447854
 H        -2.630935         2.126350        -1.886512
 H        -1.662643         3.513277        -1.240406
 H        -0.834229         0.662947        -2.042193
 H         0.401544         1.710412        -1.633288
 H        -1.346013         3.461476         2.810482
 H        -1.799880         1.687327         3.020510
 H         0.249656         2.739496         0.667824
