19
Iteration:  3448charge 0 multiplicity 1
 O         0.125845        -0.376432         0.292433
 C        -0.597769         0.788796         0.164323
 C        -2.159880         0.608081         0.279033
 C        -2.060477         2.129815         0.244194
 C        -1.822931         2.487804        -1.184074
 C        -0.497631         1.541048        -1.269333
 O        -2.855814         2.632965         1.396432
 C        -1.746126         2.339499         2.359907
 C        -0.721660         2.028222         1.146337
 H         1.052960        -0.239005         0.544238
 H        -2.601081         0.063178        -0.543264
 H        -2.607585         0.072198         1.143957
 H        -2.435599         2.109845        -1.995007
 H        -1.612729         3.619878        -1.338775
 H        -0.531402         0.987996        -2.153963
 H         0.413789         2.187643        -1.459701
 H        -1.465326         3.301332         2.733563
 H        -1.917165         1.564315         3.111719
 H         0.070471         2.784594         1.189300
