19
Iteration:  4364
 O         0.291855        -0.369072         0.393400
 C        -0.668507         0.753376         0.204704
 C        -2.183159         0.551362         0.211612
 C        -2.143225         2.146649         0.263245
 C        -1.841660         2.551245        -1.180206
 C        -0.595413         1.563415        -1.270581
 O        -2.766442         2.795443         1.378617
 C        -1.677800         2.221575         2.269040
 C        -0.773763         1.976785         1.101685
 H         0.876129        -0.418452         1.180178
 H        -2.632083         0.093165        -0.644351
 H        -2.608835         0.165488         1.167280
 H        -2.715731         2.366428        -1.823100
 H        -1.411959         3.622584        -1.502215
 H        -0.702013         0.726887        -2.022949
 H         0.421894         2.019022        -1.301785
 H        -1.443972         3.012180         2.887075
 H        -2.127935         1.300768         2.737527
 H        -0.041560         2.760997         0.913338
