19
Iteration:   428
 O         0.355923        -0.224563         0.475700
 C        -0.589833         0.733516         0.146819
 C        -2.211235         0.540832         0.397823
 C        -2.100692         2.073033         0.345062
 C        -2.023633         2.237141        -1.116002
 C        -0.673400         1.326280        -1.307072
 O        -2.745130         2.852106         1.401294
 C        -1.609193         2.597129         2.159350
 C        -0.683314         2.075018         0.921259
 H         0.044334        -1.130118         0.262690
 H        -2.648152        -0.012476        -0.442427
 H        -2.480452         0.042973         1.318318
 H        -2.841205         1.609414        -1.571739
 H        -1.984427         3.265514        -1.501092
 H        -0.874839         0.532739        -2.021141
 H         0.182483         2.009390        -1.644619
 H        -1.188722         3.546454         2.670365
 H        -1.843050         2.002595         3.045135
 H        -0.014670         2.751548         0.431911
