19
Iteration:  1140
 O         0.293352        -0.312997         0.293805
 C        -0.594716         0.769872         0.222422
 C        -2.164851         0.535102         0.360408
 C        -2.091889         2.138276         0.270604
 C        -1.839975         2.342466        -1.179119
 C        -0.553361         1.409005        -1.239073
 O        -2.858646         2.786554         1.425450
 C        -1.765276         2.383832         2.222258
 C        -0.687208         2.150443         0.981014
 H         0.202703        -0.785825         1.151274
 H        -2.588433        -0.012415        -0.464168
 H        -2.561596         0.286935         1.321220
 H        -2.636668         1.936795        -1.784524
 H        -1.737509         3.364404        -1.585872
 H        -0.660941         0.670708        -1.951316
 H         0.376413         2.041462        -1.220474
 H        -1.541315         3.244910         2.908755
 H        -1.891806         1.479846         2.905927
 H        -0.126486         3.095188         0.682775
