19
Iteration:  3073charge 0 multiplicity 1
 O         0.251353        -0.252306         0.372432
 C        -0.588308         0.813983         0.180635
 C        -2.137155         0.543091         0.289053
 C        -2.081301         2.233108         0.290101
 C        -1.829632         2.504408        -1.215572
 C        -0.626843         1.392049        -1.312588
 O        -2.803050         2.647574         1.467445
 C        -1.679284         2.329572         2.278437
 C        -0.747946         2.116436         1.039100
 H        -0.368088        -0.976666         0.612523
 H        -2.573550         0.060542        -0.561722
 H        -2.494857        -0.008384         1.280412
 H        -2.784621         2.039106        -1.632414
 H        -1.537713         3.484264        -1.518152
 H        -0.815524         0.598837        -2.064564
 H         0.325265         1.871717        -1.550849
 H        -1.357082         2.979751         3.106679
 H        -1.969881         1.368379         2.580756
 H         0.113495         2.720453         0.860953
