19
Iteration:  2435charge 0 multiplicity 1
 O         0.310127        -0.263888         0.401343
 C        -0.679902         0.747567         0.144395
 C        -2.167208         0.463842         0.350643
 C        -2.219761         2.063355         0.292965
 C        -1.925519         2.412082        -1.180915
 C        -0.678793         1.433953        -1.285326
 O        -2.694194         2.852048         1.434475
 C        -1.520550         2.425008         2.254043
 C        -0.761757         2.032044         0.939778
 H         0.100562        -0.669310         1.262049
 H        -2.619944        -0.064949        -0.567999
 H        -2.336967        -0.052635         1.366506
 H        -2.696398         2.045501        -1.916375
 H        -1.712683         3.499698        -1.191977
 H        -0.690176         0.819075        -2.227027
 H         0.249912         1.982011        -1.281665
 H        -1.268490         3.364478         2.658749
 H        -1.928975         1.659655         2.972191
 H        -0.086063         2.720408         0.503768
