19
Iteration:  2120
 O         0.352957        -0.242197         0.199983
 C        -0.593432         0.744137         0.164291
 C        -2.160163         0.469428         0.462659
 C        -2.151198         2.096672         0.371579
 C        -1.905963         2.362033        -1.153409
 C        -0.643782         1.336136        -1.233178
 O        -2.701343         2.959839         1.302136
 C        -1.759573         2.414182         2.244325
 C        -0.758239         2.007116         1.039226
 H         0.217141        -0.526694         1.120869
 H        -2.761038         0.049352        -0.275008
 H        -2.433007         0.114291         1.428331
 H        -2.601892         2.081822        -1.953892
 H        -1.562948         3.366400        -1.277661
 H        -0.844650         0.476100        -1.930686
 H         0.226883         1.852334        -1.605449
 H        -1.383804         3.259360         2.835522
 H        -2.224158         1.596874         2.908769
 H         0.036615         2.744118         1.097312
