19
Iteration:   875
 O         0.291889        -0.325057         0.256549
 C        -0.611364         0.697217         0.139918
 C        -2.091327         0.574869         0.463845
 C        -2.061101         2.044946         0.297967
 C        -1.868411         2.368827        -1.189200
 C        -0.658031         1.402058        -1.236168
 O        -2.899986         2.775128         1.351389
 C        -1.726391         2.536235         2.198209
 C        -0.741162         2.019732         1.085694
 H         0.868082        -0.213796         1.044400
 H        -2.627812        -0.014577        -0.247059
 H        -2.240940         0.269624         1.516868
 H        -2.767898         2.016094        -1.836884
 H        -1.544607         3.364882        -1.393720
 H        -0.493745         0.717439        -2.098999
 H         0.227143         2.031532        -1.119240
 H        -1.334200         3.597166         2.422381
 H        -1.952821         2.135727         3.188204
 H         0.101669         2.804908         0.803839
