19
Iteration:  4588
 O         0.280779        -0.290811         0.419746
 C        -0.655588         0.758546         0.154429
 C        -2.183957         0.614236         0.153693
 C        -2.192627         2.151467         0.261615
 C        -1.800074         2.534816        -1.275200
 C        -0.491440         1.492930        -1.172826
 O        -2.800060         2.644741         1.487772
 C        -1.658902         2.303038         2.305161
 C        -0.841372         2.067737         1.027421
 H        -0.111753        -1.159051         0.330251
 H        -2.542803         0.203672        -0.753531
 H        -2.459913         0.019563         1.068234
 H        -2.528309         2.047207        -1.903850
 H        -1.555961         3.536311        -1.428526
 H        -0.476452         0.705207        -1.922178
 H         0.414078         2.153503        -1.274701
 H        -1.280555         3.137464         2.951627
 H        -1.934522         1.587088         3.046860
 H         0.089771         2.680903         1.056247
