19
Iteration:  2496
 O         0.392765        -0.210255         0.306152
 C        -0.697993         0.695929         0.208086
 C        -2.153895         0.513002         0.428543
 C        -2.125469         2.158557         0.326439
 C        -1.822791         2.408946        -1.143233
 C        -0.740218         1.291125        -1.356295
 O        -2.792489         2.796650         1.369899
 C        -1.643181         2.476263         2.280999
 C        -0.726077         2.073598         1.027995
 H         0.006051        -1.096599         0.326387
 H        -2.629429        -0.186971        -0.208745
 H        -2.391471         0.219337         1.404892
 H        -2.692231         2.328924        -1.767358
 H        -1.543437         3.447407        -1.335401
 H        -1.020678         0.572633        -2.139096
 H         0.209351         1.748464        -1.676236
 H        -1.317429         3.361621         2.892711
 H        -1.907752         1.665261         2.993390
 H         0.023614         2.800375         0.561836
