19
Iteration:  2491charge 0 multiplicity 1
 O         0.369351        -0.187437         0.310254
 C        -0.665454         0.699698         0.184101
 C        -2.166087         0.546699         0.459279
 C        -2.094543         2.198680         0.285940
 C        -1.833897         2.413029        -1.185838
 C        -0.748774         1.273333        -1.362990
 O        -2.778817         2.766787         1.418078
 C        -1.654158         2.449913         2.250997
 C        -0.711329         2.074873         1.062094
 H         0.136478        -1.137713         0.388710
 H        -2.694488        -0.285692        -0.148153
 H        -2.373685         0.176382         1.543873
 H        -2.737314         2.340186        -1.869345
 H        -1.443893         3.432308        -1.406739
 H        -1.009592         0.471179        -2.074185
 H         0.153784         1.820670        -1.760423
 H        -1.405903         3.243779         2.952961
 H        -2.205869         1.766879         2.932003
 H         0.050094         2.681886         0.604632
