19
Iteration:  1789charge 0 multiplicity 1
 O         0.151738        -0.281057         0.575969
 C        -0.659170         0.766525         0.158542
 C        -2.084460         0.522862         0.292498
 C        -2.122104         2.130137         0.271341
 C        -1.859736         2.459492        -1.115869
 C        -0.679967         1.399255        -1.283864
 O        -2.888240         2.679465         1.382178
 C        -1.558763         2.425486         2.173907
 C        -0.644932         2.047980         0.934407
 H         0.881667        -0.318737        -0.106203
 H        -2.703109        -0.131693        -0.326820
 H        -2.360117         0.330892         1.379467
 H        -2.613670         2.461951        -1.948062
 H        -1.311629         3.374410        -1.280961
 H        -0.906328         0.673886        -2.110079
 H         0.340996         1.721551        -1.474088
 H        -1.421911         3.459524         2.521120
 H        -1.540296         1.811855         3.185996
 H         0.136098         2.860260         0.804418
