19
Iteration:  3666
 O         0.229175        -0.436280         0.351420
 C        -0.637976         0.799998         0.239582
 C        -2.119027         0.587026         0.256006
 C        -2.126063         2.111555         0.242777
 C        -1.801558         2.582140        -1.212870
 C        -0.628458         1.594171        -1.250131
 O        -2.822428         2.687607         1.405715
 C        -1.737041         2.247468         2.228528
 C        -0.733631         2.035632         1.109001
 H         1.054303        -0.202278         0.818341
 H        -2.643240         0.170748        -0.659809
 H        -2.417965         0.167465         1.250928
 H        -2.412313         2.431795        -2.031322
 H        -1.375046         3.629320        -1.225728
 H        -0.870495         0.782195        -1.857361
 H         0.424820         2.002587        -1.498383
 H        -1.552330         3.065837         2.924674
 H        -1.931351         1.298132         2.864678
 H         0.032295         2.775032         1.081598
