19
Iteration:  1083charge 0 multiplicity 1
 O         0.463865        -0.173235         0.348081
 C        -0.646386         0.748736         0.196407
 C        -2.312216         0.508548         0.406708
 C        -2.188651         2.067271         0.253075
 C        -1.720681         2.526371        -1.149489
 C        -0.699350         1.320861        -1.219580
 O        -2.805532         2.822205         1.258314
 C        -1.655347         2.308100         2.271680
 C        -0.809558         1.979231         0.991399
 H         0.651009        -0.026564         1.281263
 H        -2.884472        -0.078995        -0.312227
 H        -2.477962         0.062783         1.374808
 H        -2.467890         2.538661        -1.979513
 H        -1.231300         3.441085        -1.017235
 H        -0.933803         0.551024        -1.946227
 H         0.277214         1.623333        -1.530043
 H        -1.408737         3.253704         2.924915
 H        -1.928534         1.438240         2.863777
 H        -0.320003         2.950247         0.764686
