19
Iteration:  2931
 O         0.216363        -0.305348         0.387641
 C        -0.699107         0.671004         0.140440
 C        -2.187357         0.564689         0.243666
 C        -2.082770         2.094888         0.295037
 C        -1.891578         2.375791        -1.175953
 C        -0.573085         1.500616        -1.264309
 O        -2.760339         2.720126         1.416564
 C        -1.551921         2.440816         2.294033
 C        -0.819674         2.015112         1.021525
 H         0.900313         0.219584         0.856974
 H        -2.778431         0.063333        -0.529493
 H        -2.546411         0.069640         1.286833
 H        -2.749771         2.063014        -1.899078
 H        -1.688009         3.426662        -1.392539
 H        -0.593702         0.910404        -2.203602
 H         0.379203         2.049108        -1.282516
 H        -1.249323         3.513404         2.629289
 H        -1.728942         1.849037         3.233809
 H        -0.159421         2.878253         0.917322
