19
Iteration:   457
 O         0.382559        -0.228491         0.195090
 C        -0.621217         0.748941         0.268855
 C        -2.150493         0.485779         0.643756
 C        -2.102334         2.164136         0.261487
 C        -1.940094         2.282142        -1.233773
 C        -0.742843         1.274420        -1.197666
 O        -2.780204         2.891003         1.274441
 C        -1.636406         2.485497         2.210454
 C        -0.745174         2.099249         0.999260
 H         0.122046        -0.988292         0.723401
 H        -2.503304        -0.404104         0.151134
 H        -2.304732         0.391014         1.728007
 H        -2.777073         1.980999        -1.710623
 H        -1.573310         3.312757        -1.612320
 H        -0.861576         0.395048        -1.843601
 H         0.139902         1.886170        -1.429648
 H        -1.194410         3.397715         2.484190
 H        -2.034872         1.805606         3.046056
 H         0.035732         2.795889         0.650999
