19
Iteration:   863
 O         0.347383        -0.321836         0.228108
 C        -0.657364         0.714188         0.172702
 C        -2.124877         0.431368         0.436618
 C        -2.147066         2.109578         0.325415
 C        -1.863706         2.368379        -1.084927
 C        -0.577183         1.333721        -1.235406
 O        -2.847176         2.812683         1.309654
 C        -1.719527         2.544065         2.237020
 C        -0.763720         2.164157         1.002624
 H         0.622264        -0.304168         1.150224
 H        -2.741641        -0.210595        -0.189037
 H        -2.334501         0.177686         1.498224
 H        -2.687523         2.284474        -1.838900
 H        -1.437674         3.354493        -1.201802
 H        -0.700256         0.550955        -2.030998
 H         0.351981         1.829020        -1.437490
 H        -1.434908         3.474031         2.805994
 H        -1.930538         1.641923         2.837204
 H        -0.051654         3.006886         0.682794
