19
Iteration:  1931charge 0 multiplicity 1
 O         0.238801        -0.315920         0.481250
 C        -0.639209         0.698164         0.157974
 C        -2.163459         0.601156         0.370900
 C        -2.164820         2.095985         0.249884
 C        -1.816014         2.498538        -1.222105
 C        -0.650838         1.434369        -1.307270
 O        -2.896712         2.653686         1.497237
 C        -1.529251         2.507266         2.097346
 C        -0.697180         2.006508         0.939612
 H         0.422459        -0.288402         1.448109
 H        -2.800245        -0.075067        -0.324909
 H        -2.478511         0.446322         1.422925
 H        -2.661544         2.236203        -1.889028
 H        -1.520047         3.593849        -1.297983
 H        -0.985148         0.717685        -2.088347
 H         0.410077         1.760069        -1.529782
 H        -1.173073         3.368676         2.713456
 H        -1.527965         1.699923         2.994772
 H         0.183547         2.671789         0.596026
