19
Iteration:  2862charge 0 multiplicity 1
 O         0.398520        -0.242186         0.319817
 C        -0.620847         0.733911         0.083660
 C        -2.091293         0.497283         0.421112
 C        -2.079739         2.159809         0.341106
 C        -1.830936         2.463675        -1.187528
 C        -0.768162         1.347362        -1.301444
 O        -2.828888         2.875443         1.327556
 C        -1.693310         2.358436         2.280293
 C        -0.779788         2.040437         1.154417
 H         0.002572        -1.073399         0.686444
 H        -2.586029        -0.131772        -0.425102
 H        -2.432598         0.057361         1.286966
 H        -2.559831         2.296843        -2.053441
 H        -1.411166         3.520834        -1.282254
 H        -1.206956         0.599597        -1.924969
 H         0.247883         1.557171        -1.807844
 H        -1.254934         3.177227         2.939293
 H        -2.114236         1.581515         2.854526
 H        -0.004447         2.727909         1.006625
