19
Iteration:  4964
 O         0.140459        -0.384462         0.265333
 C        -0.605881         0.722135         0.210014
 C        -2.124411         0.561474         0.198263
 C        -2.051889         2.103917         0.283613
 C        -1.762949         2.433162        -1.125168
 C        -0.424786         1.729482        -1.135000
 O        -2.876651         2.678733         1.315606
 C        -1.858311         2.350819         2.280249
 C        -0.752373         1.971522         1.164566
 H         1.088243        -0.302876        -0.017596
 H        -2.747275         0.008681        -0.580443
 H        -2.493222         0.259648         1.216255
 H        -2.472685         2.042173        -1.863203
 H        -1.586881         3.519296        -1.154451
 H        -0.325491         1.029191        -1.972064
 H         0.486838         2.359904        -1.196807
 H        -1.514690         3.155958         2.864738
 H        -2.243581         1.684038         3.123634
 H        -0.034444         2.701741         0.902767
