19
Iteration:  2536charge 0 multiplicity 1
 O         0.300575        -0.280878         0.432464
 C        -0.703311         0.693064         0.166927
 C        -2.140368         0.411180         0.369352
 C        -2.114449         2.009056         0.298619
 C        -1.950026         2.386060        -1.140492
 C        -0.681866         1.518431        -1.349822
 O        -2.770688         2.826815         1.407600
 C        -1.521552         2.563893         2.241637
 C        -0.756253         2.056205         0.981338
 H         0.139199        -1.140657        -0.020662
 H        -2.674722        -0.163587        -0.458791
 H        -2.546843         0.113041         1.370095
 H        -2.809890         1.992336        -1.746456
 H        -1.747881         3.427598        -1.415282
 H        -0.615756         0.883548        -2.211578
 H         0.342814         1.989669        -1.117913
 H        -1.303995         3.582853         2.646584
 H        -1.581944         1.868047         3.110055
 H         0.154833         2.705889         0.735433
