19
Iteration:  3538
 O         0.294643        -0.379874         0.303860
 C        -0.634529         0.715104         0.225733
 C        -2.185323         0.618920         0.202215
 C        -2.058933         2.103957         0.305502
 C        -1.778443         2.519450        -1.144345
 C        -0.579898         1.470307        -1.169874
 O        -2.853042         2.740751         1.378512
 C        -1.778429         2.296070         2.257190
 C        -0.768762         2.055565         1.134427
 H         1.086319        -0.299745        -0.275313
 H        -2.644475         0.242864        -0.635975
 H        -2.636366         0.203413         1.038705
 H        -2.622721         2.432083        -1.887535
 H        -1.470380         3.577577        -1.037498
 H        -0.683496         0.864906        -2.038047
 H         0.247650         2.114441        -1.373189
 H        -1.506597         3.113204         2.887021
 H        -1.991976         1.401375         2.806725
 H        -0.015828         2.860217         1.010617
