19
Iteration:   921
 O         0.212435        -0.319692         0.491047
 C        -0.603770         0.793475         0.173210
 C        -2.069126         0.438443         0.330819
 C        -2.206375         2.155920         0.303363
 C        -1.883064         2.345748        -1.131466
 C        -0.627246         1.436474        -1.218538
 O        -2.803214         2.771248         1.382412
 C        -1.581300         2.435121         2.216609
 C        -0.844701         2.107637         0.895711
 H         1.150677        -0.137581         0.246046
 H        -2.617265         0.128126        -0.527689
 H        -2.288468        -0.148175         1.202314
 H        -2.676925         2.070298        -1.910254
 H        -1.375258         3.283706        -1.364138
 H        -0.560615         0.667985        -1.991560
 H         0.299694         2.076854        -1.412468
 H        -1.183077         3.325045         2.803627
 H        -1.928668         1.666309         2.861622
 H        -0.171442         2.931437         0.428266
