19
Iteration:  2620charge 0 multiplicity 1
 O         0.453413        -0.140255         0.426745
 C        -0.713716         0.634436         0.137742
 C        -2.287875         0.497258         0.454803
 C        -2.074011         2.106746         0.395984
 C        -1.888444         2.417667        -1.110835
 C        -0.760046         1.405701        -1.395825
 O        -2.789146         2.878697         1.309583
 C        -1.576475         2.436399         2.225856
 C        -0.708602         1.911220         1.028661
 H         0.448226        -0.836539        -0.246745
 H        -2.916464         0.047842        -0.333619
 H        -2.357087         0.087467         1.518326
 H        -2.852601         2.256537        -1.668640
 H        -1.426957         3.418263        -1.310449
 H        -1.043416         0.577237        -2.107064
 H         0.234648         1.696395        -1.602404
 H        -1.098934         3.314016         2.641542
 H        -2.066364         1.773742         3.001966
 H        -0.014011         2.590465         0.633445
