19
Iteration:  4494
 O         0.294887        -0.246355         0.373534
 C        -0.681149         0.724331         0.204564
 C        -2.260103         0.590970         0.256417
 C        -2.119786         2.191992         0.248258
 C        -1.804674         2.517457        -1.164708
 C        -0.560325         1.504125        -1.250432
 O        -2.755168         2.743367         1.393649
 C        -1.689343         2.208392         2.233279
 C        -0.798524         1.969193         1.056858
 H         0.533211        -0.588611         1.248097
 H        -2.626417         0.108047        -0.659669
 H        -2.615193         0.082486         1.167920
 H        -2.422696         2.087714        -1.914659
 H        -1.390888         3.569153        -1.366005
 H        -0.532574         0.820186        -2.065061
 H         0.273144         2.227947        -1.293205
 H        -1.424146         2.908423         2.973352
 H        -1.975550         1.272493         2.841279
 H        -0.070053         2.730394         0.917590
