19
Iteration:  3920
 O         0.270815        -0.200681         0.427804
 C        -0.683212         0.797325         0.260398
 C        -2.224963         0.538181         0.171636
 C        -2.066855         2.146631         0.311737
 C        -1.790481         2.494722        -1.157093
 C        -0.587010         1.521905        -1.227649
 O        -2.811226         2.730835         1.316338
 C        -1.677563         2.211458         2.274022
 C        -0.725169         1.972341         1.101398
 H         0.202010        -0.712002        -0.412822
 H        -2.672037         0.206360        -0.764094
 H        -2.617387         0.108408         1.132052
 H        -2.614315         2.080546        -1.811107
 H        -1.681984         3.563598        -1.306742
 H        -0.774578         0.743686        -1.971033
 H         0.401971         1.902477        -1.352732
 H        -1.162518         3.008608         2.963010
 H        -2.025117         1.342946         2.838204
 H         0.074222         2.732271         1.110680
