19
Iteration:  2670charge 0 multiplicity 1
 O         0.191743        -0.333106         0.410527
 C        -0.604914         0.763878         0.058117
 C        -2.079256         0.585545         0.374779
 C        -2.136302         2.094007         0.302679
 C        -1.944926         2.288850        -1.147430
 C        -0.624355         1.396036        -1.316477
 O        -2.805426         2.737160         1.477466
 C        -1.567298         2.456381         2.271145
 C        -0.719573         2.267559         0.970205
 H        -0.310462        -1.142623         0.192926
 H        -2.695731        -0.007247        -0.366100
 H        -2.199134         0.275872         1.397847
 H        -2.571479         1.847336        -1.892150
 H        -1.651862         3.248576        -1.508863
 H        -0.719266         0.730728        -2.192971
 H         0.265854         2.057779        -1.506096
 H        -1.150992         3.290456         2.882140
 H        -1.730009         1.607614         2.921038
 H         0.119480         3.047962         0.852804
