19
Iteration:    21
 O         0.283047        -0.254557         0.279680
 C        -0.689370         0.769436         0.288739
 C        -2.171023         0.416947         0.448484
 C        -2.256952         2.001957         0.174705
 C        -1.840554         2.439671        -1.312750
 C        -0.632123         1.478813        -1.161939
 O        -2.879067         2.617803         1.430187
 C        -1.524911         2.612807         2.160103
 C        -0.685011         2.078244         1.023222
 H         0.585739        -0.402195         1.202500
 H        -2.545946        -0.351738        -0.230865
 H        -2.484173         0.190597         1.452821
 H        -2.605200         2.237320        -2.107559
 H        -1.555022         3.487946        -1.311214
 H        -0.546421         0.646743        -1.928122
 H         0.283410         1.969201        -1.150441
 H        -1.141578         3.649783         2.396631
 H        -1.596682         2.165755         3.168523
 H         0.151369         2.658839         0.834232
