19
Iteration:   162
 O         0.224970        -0.352067         0.471176
 C        -0.587695         0.743448         0.134489
 C        -2.119812         0.525751         0.546220
 C        -2.116567         1.971508         0.325920
 C        -1.924504         2.415602        -1.142499
 C        -0.636847         1.444206        -1.259411
 O        -2.864842         2.683115         1.367210
 C        -1.629935         2.576629         2.108774
 C        -0.667319         2.105985         0.859009
 H         1.088152        -0.444576         0.002115
 H        -2.858788         0.040535        -0.049437
 H        -2.124725         0.424473         1.603211
 H        -2.784314         2.300752        -1.862431
 H        -1.714451         3.507173        -1.069755
 H        -0.824348         0.797747        -2.217060
 H         0.289617         1.950426        -1.361931
 H        -1.370508         3.585636         2.475285
 H        -1.642975         1.806206         2.901473
 H        -0.213417         2.970657         0.437717
