19
Iteration:  4174
 O         0.285704        -0.243039         0.298390
 C        -0.682326         0.820482         0.184936
 C        -2.273872         0.559257         0.144887
 C        -2.139634         2.118484         0.280032
 C        -1.694474         2.535019        -1.106284
 C        -0.541516         1.348681        -1.152366
 O        -2.818583         2.729528         1.427152
 C        -1.643227         2.216925         2.310589
 C        -0.798477         2.072205         0.976948
 H         0.499462        -0.350704         1.247922
 H        -2.700077         0.254096        -0.861170
 H        -2.612961         0.085286         1.037297
 H        -2.523979         2.258733        -1.840557
 H        -1.357615         3.606605        -1.142830
 H        -0.746032         0.662042        -1.948167
 H         0.389763         1.859487        -1.171351
 H        -1.518660         3.126475         2.934867
 H        -2.053145         1.350008         2.760313
 H        -0.148301         2.955166         0.844767
