19
Iteration:  1564
 O         0.282852        -0.237947         0.431083
 C        -0.668718         0.723791         0.168962
 C        -2.183244         0.490482         0.311548
 C        -2.091991         2.047819         0.290281
 C        -1.790905         2.402364        -1.121369
 C        -0.612113         1.392216        -1.212975
 O        -2.895775         2.758967         1.399177
 C        -1.620430         2.528178         2.157704
 C        -0.780629         2.008669         1.028941
 H         0.674291        -0.540168        -0.390793
 H        -2.677730        -0.024577        -0.525165
 H        -2.564730         0.090824         1.291112
 H        -2.675170         2.374022        -1.674262
 H        -1.330761         3.448519        -1.300429
 H        -0.705649         0.653277        -2.003479
 H         0.241876         2.097754        -1.445806
 H        -1.178075         3.511000         2.677292
 H        -1.658788         1.892013         3.010078
 H         0.069951         2.680310         0.746787
