19
Iteration:  2699charge 0 multiplicity 1
 O         0.346228        -0.245819         0.417368
 C        -0.647059         0.744223         0.197804
 C        -2.167143         0.526569         0.429853
 C        -2.129687         2.101617         0.269280
 C        -1.957395         2.432570        -1.156963
 C        -0.764296         1.436186        -1.309300
 O        -2.766220         2.790795         1.358154
 C        -1.552798         2.377917         2.209606
 C        -0.673846         2.076983         0.992406
 H        -0.149045        -1.040670         0.643816
 H        -2.738832        -0.149595        -0.292388
 H        -2.581280         0.157495         1.346060
 H        -2.647951         1.997032        -1.929646
 H        -1.679596         3.428861        -1.556279
 H        -0.888504         0.754190        -2.108573
 H         0.215788         1.961736        -1.521239
 H        -1.038999         3.258261         2.691405
 H        -1.892767         1.615862         2.937605
 H         0.252145         2.597587         0.929143
