19
Iteration:  1636charge 0 multiplicity 1
 O         0.379900        -0.238536         0.521070
 C        -0.625313         0.736649         0.207648
 C        -2.189647         0.569780         0.305725
 C        -2.143890         2.127390         0.287359
 C        -1.891723         2.397247        -1.210557
 C        -0.659611         1.380400        -1.290395
 O        -2.753501         2.817420         1.377396
 C        -1.680774         2.355060         2.240623
 C        -0.740890         2.063039         0.971907
 H         0.008999        -1.038326         0.132055
 H        -2.822956         0.067253        -0.446992
 H        -2.452888         0.208056         1.304666
 H        -2.795665         2.352314        -1.961653
 H        -1.435864         3.374301        -1.331760
 H        -0.669887         0.544755        -2.085198
 H         0.181092         2.029671        -1.452389
 H        -1.409885         3.053588         3.000401
 H        -1.873027         1.301814         2.730780
 H        -0.143147         2.941505         0.732868
