19
Iteration:  4636
 O         0.305300        -0.248778         0.550837
 C        -0.642584         0.709656         0.143593
 C        -2.153450         0.486262         0.286182
 C        -2.137140         2.103026         0.283521
 C        -1.778694         2.648938        -1.147658
 C        -0.605481         1.545589        -1.338535
 O        -2.813058         2.812826         1.359028
 C        -1.737773         2.195943         2.232896
 C        -0.763231         1.946104         1.045402
 H         0.406461        -0.703706        -0.329377
 H        -2.759630        -0.177538        -0.465420
 H        -2.282192         0.142716         1.299746
 H        -2.449782         2.415525        -1.971346
 H        -1.282836         3.664314        -1.036058
 H        -0.963245         0.758316        -2.042385
 H         0.479068         1.860478        -1.587526
 H        -1.439315         2.901047         2.978974
 H        -2.078434         1.293301         2.855322
 H        -0.266212         2.845068         0.822244
