19
Iteration:  4382charge 0 multiplicity 1
 O         0.264637        -0.348330         0.286419
 C        -0.652844         0.734550         0.103338
 C        -2.107224         0.446066         0.232697
 C        -2.078528         2.056900         0.336971
 C        -1.821216         2.517334        -1.089001
 C        -0.563546         1.498876        -1.213374
 O        -2.728559         2.944385         1.347544
 C        -1.822495         2.283437         2.290408
 C        -0.823184         1.995354         1.050937
 H         0.524072        -0.247965         1.230619
 H        -2.543503        -0.054010        -0.651051
 H        -2.372206        -0.068430         1.179835
 H        -2.491625         2.196405        -1.862455
 H        -1.666156         3.585048        -0.920652
 H        -0.715416         0.855355        -2.022377
 H         0.205865         2.246237        -1.340504
 H        -1.303533         3.012800         2.968262
 H        -2.364157         1.484803         2.838472
 H        -0.001328         2.708555         1.021945
