19
Iteration:  2436
 O         0.316688        -0.261228         0.400935
 C        -0.677538         0.744712         0.147639
 C        -2.168060         0.459108         0.344133
 C        -2.215711         2.064145         0.296374
 C        -1.928972         2.411460        -1.186304
 C        -0.682301         1.423452        -1.283524
 O        -2.688460         2.855141         1.440666
 C        -1.534273         2.420666         2.243949
 C        -0.758702         2.045989         0.947465
 H         0.046020        -0.662206         1.250662
 H        -2.635659        -0.021165        -0.572069
 H        -2.337777        -0.062704         1.356122
 H        -2.721354         2.073095        -1.912490
 H        -1.706752         3.480853        -1.166120
 H        -0.703416         0.811885        -2.214785
 H         0.263264         1.981410        -1.258220
 H        -1.268627         3.361569         2.671814
 H        -1.909700         1.638766         2.950255
 H        -0.066590         2.710237         0.450963
