19
Iteration:   304charge 0 multiplicity 1
 O         0.319607        -0.267346         0.363254
 C        -0.628208         0.698199         0.170556
 C        -2.119266         0.499649         0.555771
 C        -2.129791         2.041633         0.337664
 C        -1.963977         2.256149        -1.195496
 C        -0.690964         1.503982        -1.264108
 O        -2.788757         2.757525         1.318773
 C        -1.543249         2.647059         2.156212
 C        -0.746827         2.042917         1.000541
 H        -0.147444        -1.129277         0.271511
 H        -2.764605        -0.068847        -0.067224
 H        -2.230919         0.258018         1.644740
 H        -2.809923         1.872034        -1.717267
 H        -1.926355         3.340836        -1.535074
 H        -0.579197         0.761935        -2.110455
 H         0.178640         2.139442        -1.440768
 H        -1.059657         3.584585         2.429363
 H        -1.784140         1.969086         3.046355
 H        -0.078551         2.799951         0.572120
