19
Iteration:  4673
 O         0.351331        -0.187411         0.260133
 C        -0.657134         0.700755         0.215036
 C        -2.264968         0.551670         0.205045
 C        -2.082448         2.086512         0.337176
 C        -1.671866         2.535456        -1.106650
 C        -0.565737         1.378355        -1.142640
 O        -2.892703         2.821256         1.327150
 C        -1.788528         2.304701         2.285237
 C        -0.737869         1.932746         1.172479
 H         0.724688        -0.615412        -0.553582
 H        -2.720993         0.087049        -0.695230
 H        -2.469960         0.088773         1.221370
 H        -2.497211         2.366952        -1.923826
 H        -1.483133         3.600826        -1.249487
 H        -0.887401         0.565060        -1.888130
 H         0.338414         1.774572        -1.470729
 H        -1.400118         3.321652         2.813889
 H        -2.237028         1.602130         3.052344
 H        -0.063293         2.831671         0.853293
