19
Iteration:   832
 O         0.442116        -0.122622         0.420895
 C        -0.652970         0.788483         0.205533
 C        -2.125087         0.464301         0.355093
 C        -2.174957         2.160660         0.262414
 C        -1.898490         2.369500        -1.189793
 C        -0.712160         1.233257        -1.261747
 O        -2.760621         2.873013         1.369605
 C        -1.688755         2.345253         2.196990
 C        -0.775488         2.051187         0.995687
 H        -0.010271        -0.933794         0.771000
 H        -2.572466        -0.185081        -0.356846
 H        -2.494342         0.315150         1.377189
 H        -2.800876         2.438724        -1.943961
 H        -1.342097         3.276568        -1.287087
 H        -1.012172         0.329027        -1.863840
 H         0.214971         1.764451        -1.628269
 H        -1.196260         3.183640         2.820452
 H        -1.962775         1.597866         2.912782
 H         0.033131         2.910886         0.917112
