19
Iteration:  1330charge 0 multiplicity 1
 O         0.325685        -0.236041         0.345778
 C        -0.705009         0.740218         0.262969
 C        -2.156836         0.521094         0.333972
 C        -2.020240         2.134515         0.276461
 C        -1.753834         2.391544        -1.195428
 C        -0.632751         1.394375        -1.178971
 O        -2.834019         2.780618         1.341660
 C        -1.729170         2.375833         2.258041
 C        -0.810530         2.094351         1.027911
 H         0.591086        -0.411514        -0.583754
 H        -2.579105        -0.109856        -0.456572
 H        -2.450384         0.074266         1.319084
 H        -2.625691         2.305227        -1.921400
 H        -1.402545         3.373007        -1.397436
 H        -0.996809         0.445199        -1.702493
 H         0.365734         1.696460        -1.427338
 H        -1.435488         3.238968         2.861977
 H        -2.068006         1.596249         3.073780
 H        -0.144767         2.904994         0.957787
