19
Iteration:  1686
 O         0.267870        -0.261197         0.523448
 C        -0.640898         0.695274         0.164969
 C        -2.192247         0.471652         0.312799
 C        -2.156112         2.073188         0.276374
 C        -1.753080         2.468551        -1.100678
 C        -0.641943         1.384744        -1.309778
 O        -2.818239         2.721911         1.431939
 C        -1.618848         2.488657         2.211654
 C        -0.790162         2.142440         0.892606
 H         0.371021        -0.955956        -0.165543
 H        -2.471889        -0.165054        -0.542702
 H        -2.645729         0.104074         1.217182
 H        -2.555069         2.301469        -1.759967
 H        -1.476530         3.549001        -1.129502
 H        -0.789679         0.695130        -2.105423
 H         0.356567         1.864506        -1.360322
 H        -1.244733         3.493390         2.641171
 H        -1.677779         1.706448         2.925490
 H        -0.124585         2.986362         0.765831
