19
Iteration:   546charge 0 multiplicity 1
 O         0.209275        -0.281049         0.492246
 C        -0.651108         0.751224         0.160871
 C        -2.140118         0.560116         0.434832
 C        -2.173184         2.067259         0.305392
 C        -1.957082         2.248767        -1.205699
 C        -0.616956         1.305012        -1.285744
 O        -2.746890         2.814677         1.461176
 C        -1.493854         2.486713         2.149523
 C        -0.802331         2.193486         0.810152
 H         0.928418         0.119020         0.992547
 H        -2.672953         0.005136        -0.275172
 H        -2.188573         0.134945         1.421108
 H        -2.720996         1.879083        -1.817576
 H        -1.701944         3.337915        -1.399616
 H        -0.919293         0.553939        -2.034897
 H         0.345731         1.820358        -1.541758
 H        -1.203527         3.283684         2.880277
 H        -1.551264         1.509939         2.690979
 H        -0.283815         3.111728         0.538342
