19
Iteration:   485
 O         0.373356        -0.304534         0.291527
 C        -0.566238         0.701727         0.146082
 C        -2.184555         0.487431         0.466237
 C        -2.159713         2.004796         0.370057
 C        -1.887736         2.254453        -1.111775
 C        -0.764377         1.220722        -1.315849
 O        -2.789888         2.935660         1.307736
 C        -1.612858         2.603581         2.255654
 C        -0.746760         2.229976         1.015431
 H         0.677808        -0.178091         1.205986
 H        -2.740223        -0.236214        -0.254845
 H        -2.257601        -0.061114         1.432373
 H        -2.805240         2.353644        -1.871803
 H        -1.465872         3.230281        -1.177049
 H        -1.041313         0.377444        -1.990390
 H         0.102673         1.741065        -1.772280
 H        -1.294651         3.563119         2.776199
 H        -1.888520         1.700678         2.767846
 H        -0.133360         3.026782         0.520103
