19
Iteration:  2145charge 0 multiplicity 1
 O         0.395342        -0.264325         0.158602
 C        -0.778445         0.640801         0.287974
 C        -2.221206         0.549396         0.459813
 C        -2.075750         2.084771         0.317331
 C        -1.835309         2.384455        -1.117078
 C        -0.661489         1.397859        -1.213575
 O        -2.789889         2.792135         1.272276
 C        -1.625827         2.506140         2.167897
 C        -0.783468         2.035023         1.084251
 H         0.642030        -0.444825         1.070016
 H        -2.916457         0.050344        -0.226959
 H        -2.598263         0.306740         1.490340
 H        -2.645032         2.187039        -1.879777
 H        -1.565753         3.438318        -1.205061
 H        -0.661161         0.696076        -2.045357
 H         0.291741         1.963623        -1.345760
 H        -1.143140         3.432084         2.715111
 H        -1.966855         1.687553         2.856540
 H         0.073730         2.699533         0.964042
