19
Iteration:   795charge 0 multiplicity 1
 O         0.305253        -0.208598         0.627355
 C        -0.593434         0.807551         0.222743
 C        -2.223934         0.578343         0.367553
 C        -2.169536         2.083393         0.255361
 C        -1.967864         2.310298        -1.219073
 C        -0.661879         1.384758        -1.315640
 O        -2.735812         2.776856         1.380961
 C        -1.545744         2.360734         2.152597
 C        -0.751535         2.102707         0.933488
 H         0.745842        -0.609730        -0.159163
 H        -2.705009        -0.112060        -0.401496
 H        -2.563986         0.229618         1.366005
 H        -2.785465         2.012703        -1.808063
 H        -1.766006         3.418133        -1.396369
 H        -0.624553         0.540740        -1.973356
 H         0.115444         2.021500        -1.626554
 H        -1.234864         3.230848         2.660192
 H        -1.941285         1.496052         2.800558
 H         0.037178         2.797030         0.791047
