19
Iteration:  1138charge 0 multiplicity 1
 O         0.299434        -0.307812         0.294786
 C        -0.586171         0.753738         0.236196
 C        -2.158255         0.546642         0.335361
 C        -2.090740         2.128759         0.288133
 C        -1.845516         2.346217        -1.175282
 C        -0.553749         1.409367        -1.244783
 O        -2.847334         2.797529         1.416305
 C        -1.770915         2.371271         2.235066
 C        -0.703018         2.150128         0.974615
 H         0.234121        -0.735764         1.181211
 H        -2.631148        -0.031697        -0.472334
 H        -2.591437         0.349390         1.305251
 H        -2.683212         1.915919        -1.762899
 H        -1.754848         3.347085        -1.532971
 H        -0.681511         0.617624        -2.013932
 H         0.386454         1.980816        -1.291894
 H        -1.539299         3.286127         2.939687
 H        -1.912263         1.495517         2.887341
 H        -0.136442         3.113035         0.725135
