19
Iteration:   402charge 0 multiplicity 1
 O         0.252736        -0.156901         0.627610
 C        -0.654431         0.759228         0.201369
 C        -2.080755         0.452381         0.483355
 C        -2.237045         1.992348         0.249982
 C        -1.971831         2.403519        -1.285575
 C        -0.766169         1.298679        -1.309339
 O        -2.728622         2.809796         1.440746
 C        -1.404634         2.529688         2.165015
 C        -0.793291         2.120873         0.825156
 H         0.502949        -0.836239        -0.026961
 H        -2.512550        -0.195303        -0.253535
 H        -2.339456        -0.018920         1.428095
 H        -2.613677         2.234214        -2.090609
 H        -1.649404         3.489605        -1.300148
 H        -0.944983         0.533301        -2.108007
 H         0.218782         1.730886        -1.511109
 H        -1.110684         3.240525         2.874541
 H        -1.544538         1.619444         2.818025
 H        -0.078387         2.730674         0.268622
