19
Iteration:  4215charge 0 multiplicity 1
 O         0.225215        -0.262441         0.397727
 C        -0.652467         0.712564         0.133661
 C        -2.095388         0.460681         0.226844
 C        -2.063045         2.130468         0.300572
 C        -1.805643         2.633789        -1.076681
 C        -0.590099         1.530982        -1.283163
 O        -2.791740         2.677833         1.316344
 C        -1.736328         2.298107         2.269589
 C        -0.758665         2.022561         1.064478
 H        -0.285298        -0.833384         0.996938
 H        -2.794982        -0.094619        -0.418385
 H        -2.569495         0.185777         1.210168
 H        -2.603347         2.457159        -1.911178
 H        -1.372201         3.597987        -1.115363
 H        -0.817397         0.770942        -2.079071
 H         0.365417         1.967535        -1.411932
 H        -1.235402         3.220590         2.803649
 H        -1.911539         1.571484         3.041036
 H         0.130115         2.684979         0.968336
