19
Iteration:   676charge 0 multiplicity 1
 O         0.363706        -0.158546         0.636684
 C        -0.709706         0.736362         0.182509
 C        -2.167848         0.475635         0.435136
 C        -2.133811         2.140373         0.257825
 C        -2.036149         2.352361        -1.321890
 C        -0.695450         1.381382        -1.335909
 O        -2.743355         2.786712         1.369143
 C        -1.514233         2.413627         2.235541
 C        -0.672682         2.110487         0.914497
 H         0.060567        -1.071078         0.692393
 H        -2.672011        -0.064613        -0.394343
 H        -2.517760         0.192208         1.422470
 H        -2.777217         1.923387        -1.943873
 H        -1.884326         3.432460        -1.678278
 H        -0.860572         0.531353        -1.995031
 H         0.165392         1.852592        -1.737355
 H        -1.225858         3.144797         2.870080
 H        -1.739316         1.485923         2.730078
 H         0.110413         2.856084         0.675536
