19
Iteration:   928
 O         0.243230        -0.285872         0.533056
 C        -0.616980         0.788620         0.149760
 C        -2.094793         0.454975         0.352274
 C        -2.212362         2.104959         0.293442
 C        -1.866624         2.399549        -1.135825
 C        -0.589433         1.410227        -1.273831
 O        -2.829511         2.835668         1.407291
 C        -1.587508         2.360720         2.173876
 C        -0.839716         2.120431         0.894420
 H         1.131397        -0.257448         0.097059
 H        -2.565233        -0.174548        -0.457092
 H        -2.194290        -0.098556         1.336963
 H        -2.595403         2.216600        -1.960157
 H        -1.519298         3.405354        -1.358362
 H        -0.896443         0.544906        -1.928672
 H         0.310182         1.884915        -1.531724
 H        -1.278075         3.211551         2.855842
 H        -1.829294         1.506821         2.884089
 H        -0.083582         2.938898         0.713486
