19
Iteration:  1133
 O         0.322132        -0.296310         0.305253
 C        -0.587069         0.729542         0.246636
 C        -2.133344         0.583674         0.286135
 C        -2.095864         2.102214         0.325672
 C        -1.870597         2.345894        -1.175588
 C        -0.568152         1.399164        -1.254579
 O        -2.817080         2.815367         1.371806
 C        -1.749702         2.372986         2.281641
 C        -0.770034         2.147252         0.987601
 H         0.323074        -0.594729         1.227421
 H        -2.705028        -0.007752        -0.458820
 H        -2.615183         0.366307         1.279627
 H        -2.722335         1.900057        -1.708492
 H        -1.709842         3.445712        -1.419868
 H        -0.677253         0.610634        -2.058473
 H         0.415027         1.836993        -1.543084
 H        -1.510061         3.169725         2.893292
 H        -2.024352         1.461970         2.846094
 H        -0.132946         2.986058         0.872601
