19
Iteration:    42
 O         0.303988        -0.350403         0.297021
 C        -0.658172         0.720126         0.147502
 C        -2.170251         0.523600         0.339031
 C        -2.146964         2.056990         0.383436
 C        -1.863594         2.356971        -1.045260
 C        -0.540622         1.437093        -1.234069
 O        -2.877253         2.581390         1.404042
 C        -1.623543         2.717743         2.147327
 C        -0.774624         2.107391         0.952941
 H         0.600410        -0.346115         1.225365
 H        -2.760189         0.055395        -0.463455
 H        -2.375098        -0.035575         1.235664
 H        -2.581834         2.008103        -1.860348
 H        -1.591285         3.400163        -1.162343
 H        -0.645565         0.714185        -2.147226
 H         0.379670         1.899956        -1.275589
 H        -1.407139         3.846035         2.313635
 H        -1.549730         2.548832         3.222748
 H        -0.149146         2.806423         0.539588
