19
Iteration:  1775
 O         0.252309        -0.274474         0.508882
 C        -0.667606         0.723347         0.137822
 C        -2.213637         0.479118         0.363809
 C        -2.157510         2.050947         0.307100
 C        -1.799434         2.460234        -1.131186
 C        -0.636565         1.378916        -1.284767
 O        -2.779932         2.787366         1.324610
 C        -1.591960         2.444100         2.224863
 C        -0.764035         2.130406         0.982706
 H         0.936411        -0.478815        -0.142906
 H        -2.703554        -0.066419        -0.432250
 H        -2.389508         0.053920         1.343712
 H        -2.624054         2.216697        -1.828133
 H        -1.580859         3.487155        -1.159503
 H        -0.893879         0.626614        -2.038426
 H         0.269975         1.878832        -1.544181
 H        -1.266519         3.269411         2.906353
 H        -1.863711         1.555905         2.821414
 H        -0.057422         2.892258         0.678999
