19
Iteration:    76charge 0 multiplicity 1
 O         0.391807        -0.224040         0.314185
 C        -0.629972         0.769217         0.268481
 C        -2.079779         0.440182         0.422526
 C        -2.141972         2.080714         0.275812
 C        -1.904642         2.356899        -1.171285
 C        -0.714343         1.388771        -1.299403
 O        -2.756397         2.853408         1.339093
 C        -1.711684         2.462717         2.228763
 C        -0.780925         2.087343         1.020151
 H         0.147564        -0.891727         0.994779
 H        -2.473929        -0.224606        -0.325031
 H        -2.291574         0.075472         1.418538
 H        -2.740509         2.128855        -1.847854
 H        -1.631550         3.414237        -1.326114
 H        -0.972258         0.508448        -1.915336
 H         0.238346         1.730429        -1.583468
 H        -1.387136         3.368241         2.723921
 H        -1.960068         1.606141         2.833914
 H        -0.110180         2.839078         0.768109
