19
Iteration:  4679
 O         0.336489        -0.206451         0.246331
 C        -0.651539         0.744025         0.207048
 C        -2.298064         0.522848         0.256135
 C        -2.101213         2.120413         0.289674
 C        -1.644835         2.477228        -1.141966
 C        -0.535999         1.443251        -1.153454
 O        -2.902274         2.779397         1.334352
 C        -1.769904         2.333141         2.291240
 C        -0.765990         1.954507         1.179139
 H         0.648454        -0.591316        -0.589172
 H        -2.706294         0.166940        -0.715780
 H        -2.628728         0.275616         1.235041
 H        -2.496486         2.132101        -1.684966
 H        -1.507306         3.569940        -1.296461
 H        -0.871724         0.698609        -1.872868
 H         0.553572         1.746636        -1.392369
 H        -1.329702         3.071137         2.861852
 H        -2.053324         1.662096         3.107664
 H         0.071041         2.604396         1.062920
