19
Iteration:  2895
 O         0.265492        -0.332734         0.210503
 C        -0.628472         0.721025         0.151133
 C        -2.156235         0.571808         0.403137
 C        -2.107209         2.099713         0.373501
 C        -1.867975         2.396027        -1.093802
 C        -0.604324         1.404953        -1.198957
 O        -2.834731         2.816140         1.314348
 C        -1.660355         2.391572         2.233877
 C        -0.751258         2.103203         1.033901
 H         0.735483        -0.340452         1.061355
 H        -2.596399        -0.053161        -0.436563
 H        -2.469647         0.227270         1.329268
 H        -2.630571         2.071635        -1.856888
 H        -1.505987         3.437389        -1.243511
 H        -0.847007         0.722788        -1.977844
 H         0.409464         1.908810        -1.371827
 H        -1.334764         3.282724         2.763270
 H        -1.883488         1.531874         2.828310
 H        -0.044056         2.861718         0.804751
