19
Iteration:  2989
 O         0.328774        -0.222783         0.374053
 C        -0.646382         0.714165         0.132176
 C        -2.210005         0.571880         0.375729
 C        -2.092164         2.192351         0.282822
 C        -1.807168         2.451777        -1.182358
 C        -0.673308         1.335979        -1.296376
 O        -2.829216         2.792269         1.420528
 C        -1.709009         2.319170         2.270166
 C        -0.690168         1.999394         1.070591
 H         1.008374        -0.192935        -0.309575
 H        -2.812014        -0.014304        -0.398451
 H        -2.434917         0.262795         1.400620
 H        -2.630990         2.296284        -1.864875
 H        -1.358074         3.467318        -1.381086
 H        -1.140816         0.590986        -1.987402
 H         0.287490         1.651131        -1.688734
 H        -1.551327         3.179659         2.944126
 H        -2.051739         1.411021         2.912462
 H         0.049145         2.866578         0.971197
