19
Iteration:  3814charge 0 multiplicity 1
 O         0.138604        -0.320299         0.348907
 C        -0.690446         0.772553         0.087499
 C        -2.182376         0.461969         0.228605
 C        -2.112435         2.073121         0.324927
 C        -1.734204         2.486859        -1.187982
 C        -0.495224         1.588679        -1.225838
 O        -2.807529         2.708228         1.412758
 C        -1.675339         2.348087         2.293888
 C        -0.772979         1.964845         1.058770
 H         0.824039         0.002451         0.961384
 H        -2.720917        -0.016642        -0.554279
 H        -2.429365        -0.035285         1.202349
 H        -2.723024         2.486559        -1.810076
 H        -1.412622         3.551794        -1.271321
 H        -0.353977         0.898457        -2.179357
 H         0.339218         2.313812        -1.263635
 H        -1.339749         3.291586         2.786618
 H        -1.895615         1.634992         3.105534
 H        -0.217025         2.945317         1.012008
