19
Iteration:  1427
 O         0.277210        -0.305553         0.470076
 C        -0.669812         0.749826         0.154493
 C        -2.066087         0.548689         0.279638
 C        -2.094230         2.159463         0.271296
 C        -1.864548         2.504829        -1.226770
 C        -0.540449         1.390596        -1.273394
 O        -2.889071         2.620185         1.426837
 C        -1.658114         2.484105         2.232365
 C        -0.741156         2.110193         1.062585
 H        -0.236885        -1.109020         0.222807
 H        -2.683177        -0.104330        -0.334642
 H        -2.368632         0.252261         1.321436
 H        -2.660488         2.368891        -2.012967
 H        -1.678154         3.540165        -1.399455
 H        -0.824334         0.544739        -1.945800
 H         0.410772         1.802398        -1.628909
 H        -1.304278         3.400218         2.586864
 H        -1.913645         1.723105         3.110698
 H         0.083115         2.820150         0.871540
