19
Iteration:  4618
 O         0.213489        -0.201768         0.530005
 C        -0.650069         0.779796         0.127392
 C        -2.180231         0.607609         0.209736
 C        -2.101468         2.132743         0.256791
 C        -1.790600         2.518274        -1.143768
 C        -0.554112         1.470705        -1.242088
 O        -2.801646         2.680048         1.421680
 C        -1.671215         2.173694         2.230254
 C        -0.766096         2.072837         0.993710
 H         0.299499        -1.083777         0.113482
 H        -2.649654         0.100924        -0.647875
 H        -2.574216         0.087473         1.065896
 H        -2.683649         2.299977        -1.834107
 H        -1.447293         3.558409        -1.147300
 H        -0.574927         0.779172        -2.138380
 H         0.227929         2.138505        -1.359419
 H        -1.334792         3.062827         2.869236
 H        -2.042287         1.271820         2.783921
 H         0.173496         2.714009         1.029202
