19
Iteration:  2863
 O         0.394304        -0.248590         0.315965
 C        -0.619027         0.732377         0.079855
 C        -2.089323         0.496704         0.418898
 C        -2.083684         2.149155         0.352707
 C        -1.833841         2.464123        -1.199158
 C        -0.762824         1.351561        -1.313421
 O        -2.818920         2.879492         1.332090
 C        -1.710036         2.358123         2.287399
 C        -0.776641         2.051399         1.155645
 H         0.007138        -1.057148         0.732197
 H        -2.590338        -0.142723        -0.402757
 H        -2.403795         0.006985         1.323795
 H        -2.556706         2.292510        -2.085595
 H        -1.387871         3.500241        -1.268298
 H        -1.217043         0.624263        -1.918085
 H         0.258977         1.570253        -1.808534
 H        -1.271087         3.235581         2.913042
 H        -2.117265         1.559163         2.868528
 H         0.001596         2.731400         1.030591
