19
Iteration:  4887charge 0 multiplicity 1
 O         0.234488        -0.326297         0.510805
 C        -0.597761         0.824162         0.207821
 C        -2.161502         0.562672         0.148075
 C        -2.101059         2.172982         0.267078
 C        -1.698553         2.637594        -1.072561
 C        -0.641662         1.466020        -1.310517
 O        -2.796807         2.673669         1.332052
 C        -1.832388         2.140754         2.220836
 C        -0.773742         2.058342         1.095573
 H         1.131844         0.028441         0.561481
 H        -2.506524        -0.018444        -0.792039
 H        -2.498382         0.078449         1.033064
 H        -2.605459         2.651542        -1.704599
 H        -1.178424         3.608949        -1.212602
 H        -1.030427         0.789898        -2.079358
 H         0.361863         1.854363        -1.575730
 H        -1.523148         2.816580         2.981630
 H        -2.053709         1.143030         2.721443
 H        -0.006954         2.781031         1.047938
