19
Iteration:  1367
 O         0.433529        -0.203028         0.535801
 C        -0.677135         0.703977         0.159002
 C        -2.191014         0.464889         0.363563
 C        -2.063052         2.185816         0.308484
 C        -1.861395         2.402276        -1.165281
 C        -0.675793         1.476219        -1.325939
 O        -2.731704         2.883696         1.292179
 C        -1.784969         2.285238         2.262166
 C        -0.805333         1.967490         1.015614
 H         0.532298        -0.950636        -0.114069
 H        -2.822010         0.086376        -0.468203
 H        -2.486839         0.175906         1.358367
 H        -2.743560         2.226845        -1.765697
 H        -1.502029         3.505864        -1.214430
 H        -0.823882         0.709283        -2.136259
 H         0.317305         1.923041        -1.556209
 H        -1.243585         3.002862         2.979549
 H        -2.274127         1.488657         2.696107
 H        -0.052602         2.762958         0.707720
