19
Iteration:  1331charge 0 multiplicity 1
 O         0.329321        -0.234032         0.344097
 C        -0.704859         0.751008         0.264350
 C        -2.147025         0.526224         0.329967
 C        -2.028500         2.140799         0.270275
 C        -1.756148         2.384713        -1.184062
 C        -0.634858         1.395486        -1.176719
 O        -2.831759         2.785380         1.341425
 C        -1.734432         2.373485         2.257901
 C        -0.802248         2.078018         1.030053
 H         0.612894        -0.440326        -0.583843
 H        -2.593692        -0.104082        -0.465866
 H        -2.477959         0.070642         1.301638
 H        -2.619001         2.273177        -1.925402
 H        -1.411788         3.378152        -1.396350
 H        -1.026643         0.428436        -1.692823
 H         0.354033         1.655093        -1.446854
 H        -1.421415         3.254963         2.891084
 H        -2.089107         1.606278         3.029046
 H        -0.170447         2.909359         0.962273
