19
Iteration:  1260charge 0 multiplicity 1
 O         0.283009        -0.305463         0.404587
 C        -0.643559         0.756524         0.248012
 C        -2.161119         0.530187         0.248736
 C        -2.124389         2.085564         0.260614
 C        -1.856291         2.397683        -1.192762
 C        -0.610918         1.422989        -1.231593
 O        -2.768557         2.813283         1.393065
 C        -1.718097         2.360245         2.234531
 C        -0.756723         2.062079         1.019261
 H         1.034353         0.036663         0.942047
 H        -2.811703         0.155812        -0.575172
 H        -2.467363         0.089471         1.200480
 H        -2.594213         2.058166        -1.878848
 H        -1.658944         3.470371        -1.472145
 H        -0.915937         0.667275        -1.888609
 H         0.240716         2.053561        -1.684327
 H        -1.406209         3.228237         2.845777
 H        -1.824935         1.496370         2.980404
 H         0.044064         2.877354         0.865835
