19
Iteration:  1060charge 0 multiplicity 1
 O         0.334445        -0.219199         0.318893
 C        -0.655732         0.774706         0.236894
 C        -2.137627         0.554964         0.316938
 C        -2.123104         2.157822         0.236054
 C        -1.776660         2.379165        -1.184312
 C        -0.573156         1.330465        -1.289555
 O        -2.890617         2.732037         1.469000
 C        -1.706640         2.443348         2.229606
 C        -0.779046         2.059193         1.017981
 H         0.243766        -0.566668         1.240588
 H        -2.620336         0.091510        -0.561357
 H        -2.544045         0.052470         1.208750
 H        -2.591940         2.088823        -1.891857
 H        -1.470723         3.378863        -1.314200
 H        -0.781063         0.528884        -2.038665
 H         0.362013         1.730378        -1.571181
 H        -1.385319         3.353422         2.871886
 H        -1.867391         1.566667         2.863917
 H        -0.003691         2.823666         0.958806
