19
Iteration:  1148charge 0 multiplicity 1
 O         0.272676        -0.322697         0.287710
 C        -0.665072         0.822809         0.171875
 C        -2.139994         0.530101         0.465005
 C        -2.124350         2.146242         0.247721
 C        -1.819729         2.352346        -1.249424
 C        -0.556140         1.451661        -1.159667
 O        -2.900343         2.720067         1.409959
 C        -1.670268         2.426408         2.184115
 C        -0.710596         2.145747         1.041157
 H        -0.040285        -0.916709         1.016237
 H        -2.559148         0.008859        -0.424377
 H        -2.366138        -0.047463         1.383275
 H        -2.571800         1.914221        -1.959259
 H        -1.519258         3.320818        -1.564834
 H        -0.435758         0.684123        -2.028197
 H         0.304204         2.124961        -1.206712
 H        -1.341850         3.294354         2.922211
 H        -1.869219         1.537848         2.748749
 H         0.091094         2.866787         0.677162
