19
Iteration:  2314charge 0 multiplicity 1
 O         0.220528        -0.271364         0.488265
 C        -0.617776         0.740152         0.182234
 C        -2.177385         0.559093         0.238825
 C        -2.131604         2.140461         0.330622
 C        -1.892565         2.343653        -1.215894
 C        -0.656768         1.372396        -1.298594
 O        -2.784315         2.766892         1.488311
 C        -1.553387         2.446076         2.309326
 C        -0.768044         2.128446         0.916635
 H         0.726700        -0.572715        -0.289992
 H        -2.730853        -0.055411        -0.567071
 H        -2.590863         0.054617         1.142559
 H        -2.740113         2.100024        -1.883398
 H        -1.571063         3.397154        -1.387222
 H        -0.591765         0.514488        -2.027891
 H         0.313905         1.817255        -1.488848
 H        -1.191794         3.301242         2.816866
 H        -1.538641         1.503279         2.934292
 H        -0.080424         2.898060         0.719358
