19
Iteration:  4502charge 0 multiplicity 1
 O         0.319800        -0.234526         0.283715
 C        -0.665595         0.756035         0.159995
 C        -2.260691         0.656892         0.224895
 C        -2.095078         2.103303         0.263604
 C        -1.753984         2.472264        -1.156931
 C        -0.565590         1.450807        -1.210707
 O        -2.774357         2.751136         1.407636
 C        -1.760206         2.244829         2.310528
 C        -0.775121         1.971736         1.055870
 H         0.432166        -0.291259         1.253303
 H        -2.771499         0.192670        -0.604484
 H        -2.728884         0.228267         1.183907
 H        -2.636620         2.149519        -1.766610
 H        -1.440401         3.487711        -1.449578
 H        -0.517015         0.601160        -1.886691
 H         0.440299         2.050956        -1.180527
 H        -1.319416         2.973355         3.023757
 H        -2.199368         1.335493         2.753714
 H        -0.049789         2.782164         0.975570
