19
Iteration:  3424
 O         0.212996        -0.415039         0.276619
 C        -0.619747         0.721277         0.122451
 C        -2.160488         0.491549         0.222153
 C        -2.182363         2.093105         0.356056
 C        -1.761374         2.508781        -1.069540
 C        -0.471117         1.543856        -1.137249
 O        -2.862842         2.806188         1.431344
 C        -1.709106         2.399823         2.243233
 C        -0.841762         1.990686         1.003794
 H         1.163102        -0.163824         0.251513
 H        -2.698134        -0.215527        -0.571679
 H        -2.392726        -0.154661         1.112267
 H        -2.511156         2.251060        -1.859037
 H        -1.477200         3.600001        -1.149341
 H        -0.197144         1.140259        -2.134611
 H         0.334359         2.331618        -1.050645
 H        -1.403915         3.325383         2.809288
 H        -1.850946         1.449037         2.814244
 H        -0.209635         2.827482         0.700829
