19
Iteration:   467
 O         0.356765        -0.235178         0.166331
 C        -0.631128         0.749989         0.249382
 C        -2.058044         0.455770         0.649035
 C        -2.161010         2.104302         0.317815
 C        -1.880826         2.302370        -1.173254
 C        -0.706174         1.239723        -1.204493
 O        -2.767609         2.943918         1.319679
 C        -1.693222         2.536962         2.162652
 C        -0.777072         2.095210         0.911739
 H         0.259870        -0.760047         0.976289
 H        -2.636142        -0.294137         0.047134
 H        -2.309485         0.312617         1.717175
 H        -2.685437         2.012787        -1.785509
 H        -1.623976         3.363500        -1.469934
 H        -0.980442         0.412318        -1.875759
 H         0.290330         1.481108        -1.490550
 H        -1.302978         3.314837         2.771541
 H        -1.977379         1.688426         2.834699
 H        -0.146852         2.972942         0.671584
