19
Iteration:  1403charge 0 multiplicity 1
 O         0.297514        -0.222790         0.510057
 C        -0.638983         0.769985         0.185200
 C        -2.208411         0.568492         0.281800
 C        -2.161362         2.090864         0.329029
 C        -1.787219         2.354998        -1.182882
 C        -0.566662         1.418882        -1.269244
 O        -2.827695         2.687090         1.417764
 C        -1.597482         2.403629         2.244744
 C        -0.780006         2.119518         0.918292
 H        -0.215791        -1.030543         0.254665
 H        -2.732384         0.302801        -0.617210
 H        -2.775942         0.050150         1.066184
 H        -2.511173         2.323252        -1.985129
 H        -1.429771         3.427543        -1.326467
 H        -0.635774         0.680404        -2.010007
 H         0.301960         2.123133        -1.492896
 H        -1.317852         3.180223         2.893576
 H        -1.832713         1.468875         2.823002
 H        -0.062937         2.974440         0.615121
