19
Iteration:  1730charge 0 multiplicity 1
 O         0.309375        -0.219219         0.327724
 C        -0.691850         0.724311         0.237616
 C        -2.189944         0.523610         0.432358
 C        -1.971385         2.168759         0.356714
 C        -1.892266         2.288459        -1.155046
 C        -0.616489         1.385994        -1.254826
 O        -2.744473         2.908520         1.229772
 C        -1.780954         2.347055         2.277493
 C        -0.713587         2.011478         1.099387
 H         0.678211        -0.287595        -0.576537
 H        -2.883343         0.272223        -0.377571
 H        -2.497751         0.126833         1.360802
 H        -2.738730         1.881679        -1.666167
 H        -1.669161         3.285515        -1.598738
 H        -0.805839         0.658843        -2.019263
 H         0.363396         1.881775        -1.396906
 H        -1.555325         3.200219         2.989229
 H        -2.256602         1.508686         2.833125
 H         0.029907         2.697784         0.750905
