19
Iteration:   412
 O         0.297417        -0.226006         0.612193
 C        -0.642848         0.771108         0.164725
 C        -2.085800         0.402663         0.365180
 C        -2.235215         2.042251         0.328393
 C        -1.985020         2.283818        -1.213812
 C        -0.727844         1.344488        -1.334692
 O        -2.755949         2.862669         1.387535
 C        -1.392825         2.538378         2.207900
 C        -0.816945         2.152868         0.885752
 H         0.169073        -0.932323        -0.038502
 H        -2.728339        -0.069950        -0.400274
 H        -2.225786         0.050756         1.397811
 H        -2.831327         2.103806        -1.850173
 H        -1.596279         3.316719        -1.342091
 H        -0.902787         0.497678        -2.041050
 H         0.193511         1.872644        -1.512219
 H        -0.998457         3.450034         2.569802
 H        -1.529100         1.723438         2.951124
 H        -0.156013         3.024993         0.578231
