19
Iteration:  2258charge 0 multiplicity 1
 O         0.420846        -0.248247         0.295025
 C        -0.628170         0.738250         0.211948
 C        -2.198654         0.495114         0.418359
 C        -2.133159         2.082936         0.372242
 C        -1.874278         2.384064        -1.113813
 C        -0.694471         1.367811        -1.242133
 O        -2.813382         2.966826         1.292031
 C        -1.664920         2.392761         2.285097
 C        -0.725955         2.002593         0.990448
 H         0.026539        -1.054480        -0.053798
 H        -2.617967        -0.130435        -0.479070
 H        -2.562564        -0.024485         1.317393
 H        -2.608183         2.145402        -1.895043
 H        -1.557568         3.471690        -1.202704
 H        -0.930547         0.570410        -1.993197
 H         0.273768         1.755414        -1.574151
 H        -1.285943         3.320329         2.722123
 H        -2.122675         1.873871         3.122320
 H         0.126606         2.668303         0.718384
