19
Iteration:   787charge 0 multiplicity 1
 O         0.264141        -0.255371         0.588176
 C        -0.624399         0.780920         0.191082
 C        -2.136091         0.489512         0.368633
 C        -2.202896         2.110078         0.219611
 C        -1.987056         2.359513        -1.201235
 C        -0.641020         1.344598        -1.224284
 O        -2.770291         2.810865         1.382153
 C        -1.545327         2.429427         2.211110
 C        -0.773651         2.140572         0.890131
 H         0.843148        -0.418641        -0.201770
 H        -2.588326        -0.095253        -0.430488
 H        -2.262590        -0.106046         1.275688
 H        -2.821302         2.048712        -1.929896
 H        -1.640264         3.323353        -1.533267
 H        -0.574644         0.483133        -1.977289
 H         0.200460         2.053774        -1.305973
 H        -1.118741         3.240515         2.852076
 H        -1.681171         1.487290         2.759579
 H         0.079072         2.890827         0.655763
