19
Iteration:  2558charge 0 multiplicity 1
 O         0.292375        -0.277165         0.472186
 C        -0.689111         0.802715         0.155288
 C        -2.173407         0.664720         0.389287
 C        -2.152974         2.145385         0.319127
 C        -1.967271         2.335938        -1.212867
 C        -0.642923         1.390508        -1.303989
 O        -2.751668         2.716842         1.439491
 C        -1.588104         2.427422         2.216878
 C        -0.682304         2.013904         0.942666
 H         0.390344        -0.866892        -0.285182
 H        -2.888999         0.015670        -0.232152
 H        -2.170337         0.303629         1.448653
 H        -2.832120         1.930310        -1.803096
 H        -1.667568         3.319836        -1.598580
 H        -0.768520         0.604560        -2.028057
 H         0.335565         2.023659        -1.534637
 H        -1.212910         3.381748         2.730245
 H        -1.730121         1.666391         3.009197
 H         0.065578         2.866070         0.777232
