19
Iteration:  3078
 O         0.290931        -0.260864         0.359428
 C        -0.660896         0.819259         0.216832
 C        -2.121472         0.526066         0.279120
 C        -2.089066         2.258602         0.285959
 C        -1.838956         2.489144        -1.248050
 C        -0.631441         1.358035        -1.284646
 O        -2.795845         2.676564         1.489330
 C        -1.677244         2.286386         2.289748
 C        -0.741926         2.120547         1.040837
 H        -0.292946        -0.931248         0.737741
 H        -2.414722        -0.003313        -0.719880
 H        -2.676307         0.097359         1.036015
 H        -2.755481         2.291005        -1.758350
 H        -1.421756         3.480604        -1.614124
 H        -0.839991         0.586600        -2.028430
 H         0.218817         2.004520        -1.587971
 H        -1.377623         3.052759         3.014929
 H        -1.853240         1.230612         2.765828
 H         0.048579         2.893813         0.761850
