19
Iteration:  2774charge 0 multiplicity 1
 O         0.212500        -0.398525         0.320964
 C        -0.714911         0.767673         0.253974
 C        -2.137219         0.541533         0.420040
 C        -2.045743         2.133691         0.286851
 C        -1.916067         2.380796        -1.122704
 C        -0.697196         1.465409        -1.272373
 O        -2.794671         2.764549         1.280703
 C        -1.587265         2.368665         2.234033
 C        -0.647429         2.158833         1.022660
 H         0.966098        -0.015416         0.827743
 H        -2.510496        -0.134593        -0.417279
 H        -2.520316         0.200463         1.360333
 H        -2.745637         1.999743        -1.784760
 H        -1.686684         3.479659        -1.249211
 H        -0.977728         0.617179        -1.886403
 H         0.254489         1.969109        -1.570199
 H        -1.489595         3.360327         2.684196
 H        -1.566609         1.498076         2.909422
 H        -0.042680         3.010464         0.764119
