19
Iteration:  1660
 O         0.282640        -0.122868         0.565931
 C        -0.683057         0.702550         0.180889
 C        -2.244389         0.530881         0.266950
 C        -2.108438         2.137392         0.276466
 C        -1.810461         2.490404        -1.233283
 C        -0.648255         1.416876        -1.270132
 O        -2.828635         2.659887         1.393421
 C        -1.554601         2.400242         2.229673
 C        -0.714873         1.985730         0.970996
 H         0.197249        -1.051154         0.280255
 H        -2.764357         0.038248        -0.604519
 H        -2.594351         0.032384         1.242667
 H        -2.694008         2.189223        -1.920988
 H        -1.616804         3.665738        -1.382378
 H        -0.937719         0.460575        -1.821185
 H         0.366139         1.782419        -1.627827
 H        -1.282134         3.503036         2.420628
 H        -1.494434         1.742542         3.198335
 H         0.144441         2.725240         0.952715
