19
Iteration:   424charge 0 multiplicity 1
 O         0.345296        -0.237815         0.519976
 C        -0.609308         0.758274         0.137482
 C        -2.208003         0.500028         0.365268
 C        -2.114480         2.077945         0.340315
 C        -2.008885         2.229421        -1.099428
 C        -0.670348         1.337588        -1.306112
 O        -2.755016         2.867458         1.406121
 C        -1.555359         2.571275         2.175066
 C        -0.713119         2.097262         0.890338
 H         0.077724        -1.112591         0.185031
 H        -2.601761        -0.136397        -0.390063
 H        -2.416590        -0.002349         1.316778
 H        -2.806725         1.785143        -1.609237
 H        -1.918829         3.277593        -1.507011
 H        -0.799914         0.508882        -2.038676
 H         0.071872         1.984631        -1.764252
 H        -1.152440         3.477466         2.554866
 H        -1.788428         2.010516         3.114497
 H        -0.128592         2.924768         0.434050
