19
Iteration:  4409charge 0 multiplicity 1
 O         0.361378        -0.271937         0.134328
 C        -0.639808         0.735996         0.184692
 C        -2.297595         0.554828         0.362534
 C        -2.087969         2.069508         0.323343
 C        -1.717109         2.498069        -1.114716
 C        -0.525420         1.433762        -1.173365
 O        -2.840263         2.838914         1.310102
 C        -1.771120         2.325452         2.306234
 C        -0.783370         1.970611         1.115711
 H         0.259481        -0.845010         0.930481
 H        -2.717688         0.061719        -0.520000
 H        -2.706514         0.208913         1.294334
 H        -2.389540         2.226232        -1.973309
 H        -1.522198         3.619909        -1.087713
 H        -0.669593         0.718143        -2.064497
 H         0.286081         2.119859        -1.339442
 H        -1.377945         3.161983         2.863806
 H        -2.217376         1.509776         2.881464
 H         0.008968         2.735033         0.980558
