19
Iteration:  4583charge 0 multiplicity 1
 O         0.272033        -0.272811         0.397932
 C        -0.645984         0.704627         0.153074
 C        -2.162864         0.585326         0.172754
 C        -2.160561         2.157231         0.248105
 C        -1.804310         2.509423        -1.218822
 C        -0.498401         1.507957        -1.184644
 O        -2.832592         2.682471         1.492168
 C        -1.694122         2.291948         2.289323
 C        -0.804282         2.053859         1.031410
 H        -0.214670        -1.130688         0.344122
 H        -2.558287         0.051937        -0.755928
 H        -2.422868         0.154379         1.119217
 H        -2.498126         2.226306        -2.096277
 H        -1.489924         3.609490        -1.391065
 H        -0.407987         0.709879        -1.978165
 H         0.353958         2.158583        -1.297715
 H        -1.284215         3.186079         2.821540
 H        -1.854641         1.594257         3.189182
 H         0.008817         2.806367         1.052234
