19
Iteration:  2815
 O         0.248668        -0.222402         0.510467
 C        -0.682865         0.725972         0.190971
 C        -2.197628         0.503971         0.270663
 C        -2.179760         2.100476         0.325127
 C        -1.828502         2.418682        -1.214782
 C        -0.604631         1.450206        -1.292719
 O        -2.821836         2.837068         1.442540
 C        -1.487000         2.347063         2.258311
 C        -0.819934         2.011419         0.939260
 H         0.727166        -0.503303        -0.286133
 H        -2.817051        -0.167710        -0.280540
 H        -2.336446         0.164146         1.347727
 H        -2.696551         2.074941        -1.774755
 H        -1.604833         3.433158        -1.598241
 H        -0.682168         0.648274        -2.130261
 H         0.332272         1.946204        -1.487946
 H        -1.045653         3.203384         2.691832
 H        -1.725954         1.626610         3.093618
 H         0.036471         2.696564         0.604523
