19
Iteration:  2582
 O         0.324010        -0.213225         0.426168
 C        -0.703428         0.793970         0.228468
 C        -2.173465         0.493172         0.410297
 C        -2.088631         2.169816         0.331427
 C        -1.882886         2.375758        -1.230829
 C        -0.747250         1.259524        -1.246705
 O        -2.767954         2.837683         1.406713
 C        -1.556376         2.329892         2.247702
 C        -0.723462         2.164512         0.921340
 H         0.554771        -0.684889        -0.393799
 H        -2.670495         0.015039        -0.432695
 H        -2.522194         0.013685         1.269894
 H        -2.704551         2.166603        -1.903374
 H        -1.470466         3.358415        -1.490007
 H        -1.122943         0.468010        -1.888818
 H         0.144604         1.773499        -1.760263
 H        -1.092530         2.903879         3.097541
 H        -1.858748         1.396950         2.617017
 H        -0.225565         3.211777         0.768208
