19
Iteration:  1435charge 0 multiplicity 1
 O         0.257250        -0.282094         0.433202
 C        -0.575263         0.777511         0.227281
 C        -2.082863         0.517859         0.373832
 C        -2.114227         2.120970         0.287581
 C        -1.875908         2.504174        -1.255751
 C        -0.597293         1.424267        -1.284952
 O        -2.870055         2.643954         1.369102
 C        -1.669629         2.496453         2.252990
 C        -0.743930         2.006611         1.011852
 H        -0.259992        -1.064644         0.184434
 H        -2.632546         0.082098        -0.455466
 H        -2.416578         0.192597         1.372088
 H        -2.609863         2.352719        -2.022847
 H        -1.313884         3.493514        -1.209182
 H        -0.710322         0.597372        -1.923238
 H         0.279037         2.045203        -1.697831
 H        -1.380938         3.458116         2.619839
 H        -1.978082         1.818557         3.024378
 H         0.156998         2.703266         1.059188
