19
Iteration:  4096
 O         0.279537        -0.247362         0.214593
 C        -0.720913         0.806406         0.204722
 C        -2.122836         0.503513         0.234548
 C        -2.191522         2.143041         0.238008
 C        -1.735440         2.513020        -1.159484
 C        -0.488843         1.466140        -1.090563
 O        -2.850416         2.691852         1.403311
 C        -1.662867         2.346314         2.267357
 C        -0.805310         1.975303         1.086752
 H        -0.041570        -1.019995         0.720031
 H        -2.620723        -0.025020        -0.581537
 H        -2.638215         0.161576         1.155984
 H        -2.418510         2.443221        -2.119341
 H        -1.403838         3.532151        -1.116512
 H        -0.596879         0.646763        -1.816401
 H         0.465915         1.838517        -1.153602
 H        -1.351872         3.325704         2.829576
 H        -1.945616         1.720942         3.057777
 H        -0.162734         2.864731         0.894480
