19
Iteration:   456charge 0 multiplicity 1
 O         0.388955        -0.230566         0.205120
 C        -0.632396         0.747770         0.267922
 C        -2.157419         0.494172         0.636231
 C        -2.093855         2.165526         0.255699
 C        -1.948077         2.278498        -1.240535
 C        -0.748151         1.282816        -1.201845
 O        -2.782510         2.882912         1.267325
 C        -1.622486         2.484252         2.214726
 C        -0.739205         2.103771         1.017532
 H         0.128463        -1.026468         0.684578
 H        -2.534425        -0.430056         0.114214
 H        -2.294355         0.398162         1.738228
 H        -2.804841         1.954531        -1.733597
 H        -1.571489         3.292347        -1.602720
 H        -0.836428         0.390452        -1.847364
 H         0.078080         1.927202        -1.426853
 H        -1.211535         3.389695         2.497523
 H        -2.013220         1.852135         3.080879
 H         0.079309         2.787875         0.667933
