19
Iteration:  1847charge 0 multiplicity 1
 O         0.274696        -0.307013         0.317109
 C        -0.635230         0.763880         0.218797
 C        -2.217916         0.476001         0.437401
 C        -2.189994         2.083938         0.330399
 C        -1.886576         2.344333        -1.159281
 C        -0.604343         1.452483        -1.269148
 O        -2.693412         2.925734         1.308299
 C        -1.698206         2.396768         2.177121
 C        -0.743781         1.974487         1.045597
 H         1.065921         0.013532         0.741331
 H        -2.825592         0.007200        -0.409935
 H        -2.407256         0.112675         1.432423
 H        -2.656777         1.938588        -1.796186
 H        -1.610117         3.484130        -1.358475
 H        -0.846466         0.626079        -1.947092
 H         0.418646         1.951229        -1.357691
 H        -1.278753         3.332988         2.644329
 H        -2.015455         1.539788         2.866136
 H        -0.014603         2.836915         0.941913
