19
Iteration:   725charge 0 multiplicity 1
 O         0.413149        -0.264683         0.255876
 C        -0.696209         0.759914         0.280277
 C        -2.171870         0.446406         0.514367
 C        -2.058604         2.112104         0.320647
 C        -1.847702         2.381063        -1.172750
 C        -0.740773         1.304790        -1.257227
 O        -2.816116         2.823956         1.286564
 C        -1.694031         2.543709         2.183625
 C        -0.738850         2.072360         1.021175
 H         0.679014        -0.542439         1.179080
 H        -2.630618        -0.147447        -0.258446
 H        -2.401326         0.220986         1.570402
 H        -2.831652         1.996104        -1.649575
 H        -1.619886         3.351464        -1.554997
 H        -1.076973         0.722184        -2.142330
 H         0.235399         1.709818        -1.709841
 H        -1.357160         3.565900         2.635025
 H        -1.904866         1.718248         2.898013
 H         0.153913         2.661255         0.804805
