19
Iteration:  3926
 O         0.258592        -0.211620         0.432232
 C        -0.650335         0.804377         0.188050
 C        -2.187544         0.551624         0.216146
 C        -2.060671         2.171877         0.259799
 C        -1.779515         2.471742        -1.183853
 C        -0.600828         1.506701        -1.207617
 O        -2.795501         2.692029         1.356343
 C        -1.700163         2.205668         2.275041
 C        -0.763643         1.993013         1.104093
 H        -0.033991        -0.762724        -0.325697
 H        -2.750866         0.168324        -0.680963
 H        -2.499778         0.218335         1.188279
 H        -2.624698         2.292292        -1.819282
 H        -1.606835         3.634010        -1.235287
 H        -0.660050         0.808039        -2.074652
 H         0.416143         1.982145        -1.321713
 H        -1.312132         3.005361         2.814875
 H        -2.087511         1.483503         3.021751
 H         0.084817         2.669881         1.139315
