19
Iteration:  2350charge 0 multiplicity 1
 O         0.294827        -0.246407         0.438617
 C        -0.668515         0.722235         0.193455
 C        -2.167658         0.518086         0.414951
 C        -2.076447         2.119125         0.290317
 C        -1.885480         2.360155        -1.125039
 C        -0.727545         1.398249        -1.353171
 O        -2.777973         2.893170         1.331434
 C        -1.615909         2.311595         2.278406
 C        -0.747624         1.981289         0.913999
 H         1.157506        -0.090447        -0.010773
 H        -2.698130         0.046333        -0.366633
 H        -2.447936         0.455168         1.489008
 H        -2.752482         2.479296        -1.794356
 H        -1.488486         3.345408        -1.043746
 H        -0.922014         0.556730        -2.043133
 H         0.136631         2.078772        -1.449863
 H        -1.334768         3.131102         2.910489
 H        -1.959227         1.562223         3.031084
 H         0.126058         2.800481         0.740214
