19
Iteration:  1097
 O         0.436110        -0.106441         0.380045
 C        -0.748211         0.610167         0.203959
 C        -2.176634         0.411394         0.378349
 C        -2.102634         2.093803         0.293002
 C        -1.756586         2.505462        -1.080194
 C        -0.698078         1.329217        -1.316491
 O        -2.752827         2.870051         1.311888
 C        -1.765333         2.357833         2.171751
 C        -0.832461         2.011269         1.008740
 H         0.884245         0.000746         1.235427
 H        -2.701004        -0.117911        -0.393072
 H        -2.610802         0.317143         1.340829
 H        -2.582720         2.487434        -1.779426
 H        -1.360157         3.558674        -1.093552
 H        -1.099104         0.708739        -2.045979
 H         0.362363         1.666533        -1.538596
 H        -1.339420         2.999903         2.921970
 H        -2.244217         1.486059         2.697397
 H         0.139299         2.494387         0.806803
