19
Iteration:   210charge 0 multiplicity 1
 O         0.424789        -0.278534         0.251578
 C        -0.612732         0.776696         0.189822
 C        -2.194012         0.527840         0.348047
 C        -2.155088         2.054777         0.368952
 C        -2.016328         2.201313        -1.057481
 C        -0.684548         1.245189        -1.235265
 O        -2.715768         2.957664         1.283150
 C        -1.658061         2.518277         2.260257
 C        -0.782172         2.107186         1.030408
 H         0.995525         0.042065         0.966297
 H        -2.641364         0.145959        -0.568178
 H        -2.396495         0.085070         1.341527
 H        -2.866477         1.912243        -1.647295
 H        -1.750154         3.211103        -1.415557
 H        -0.749910         0.430932        -1.895251
 H         0.215737         1.832385        -1.579072
 H        -1.309613         3.322562         2.877731
 H        -2.061457         1.685349         2.767436
 H        -0.121764         2.938846         0.872660
