19
Iteration:  3317charge 0 multiplicity 1
 O         0.262665        -0.422275         0.423664
 C        -0.646310         0.711445         0.091841
 C        -2.280849         0.529007         0.149065
 C        -2.136146         2.008301         0.302350
 C        -1.783976         2.510629        -1.042177
 C        -0.523677         1.668031        -1.237300
 O        -2.794128         2.762285         1.395854
 C        -1.681765         2.390805         2.233234
 C        -0.763220         1.922654         1.033351
 H         1.169855        -0.144738         0.685849
 H        -2.913991         0.041647        -0.628799
 H        -2.785508         0.278193         1.154760
 H        -2.532523         2.335142        -1.869918
 H        -1.844094         3.729807        -1.058567
 H        -0.556805         1.100561        -2.138808
 H         0.379559         2.340076        -1.224023
 H        -1.191731         3.233024         2.723915
 H        -1.953841         1.618381         2.945450
 H        -0.059493         2.768238         1.070969
