19
Iteration:  3552
 O         0.140746        -0.429500         0.273907
 C        -0.557779         0.780367         0.108226
 C        -2.043611         0.570919         0.308589
 C        -2.106216         2.185113         0.299483
 C        -1.743960         2.513045        -1.144477
 C        -0.524364         1.550454        -1.230428
 O        -2.900874         2.688458         1.396538
 C        -1.832755         2.322244         2.337311
 C        -0.746334         2.078425         1.099994
 H         0.983810        -0.413687        -0.225944
 H        -2.607732         0.017632        -0.501370
 H        -2.270857         0.207121         1.317710
 H        -2.525989         2.097803        -1.874134
 H        -1.489960         3.516391        -1.466740
 H        -0.635061         0.691504        -2.019722
 H         0.463963         1.920701        -1.259956
 H        -1.646461         3.156287         3.092666
 H        -2.118376         1.456760         2.964679
 H         0.078589         2.841850         1.040748
