19
Iteration:  2459charge 0 multiplicity 1
 O         0.353824        -0.202585         0.381193
 C        -0.626056         0.778555         0.196887
 C        -2.209535         0.578123         0.341649
 C        -2.119483         2.166652         0.312780
 C        -1.899922         2.385682        -1.111529
 C        -0.742025         1.280253        -1.303570
 O        -2.789680         2.846052         1.374909
 C        -1.517879         2.291156         2.257587
 C        -0.727618         2.117102         0.968453
 H         0.147688        -1.053264         0.796992
 H        -2.525844         0.053889        -0.575726
 H        -2.571525         0.201010         1.344023
 H        -2.760049         1.973383        -1.683234
 H        -1.528535         3.375466        -1.372609
 H        -1.062883         0.422843        -1.906477
 H         0.190846         1.728856        -1.765592
 H        -1.322352         3.088182         2.967353
 H        -2.028888         1.423315         2.649100
 H        -0.027968         2.977947         0.641962
