19
Iteration:  4245charge 0 multiplicity 1
 O         0.360123        -0.339996         0.164106
 C        -0.632425         0.721539         0.208468
 C        -2.180620         0.553522         0.264608
 C        -2.165446         2.131680         0.367155
 C        -1.756685         2.439587        -1.186921
 C        -0.518367         1.464095        -1.171274
 O        -2.872103         2.863489         1.380077
 C        -1.735759         2.264513         2.329412
 C        -0.799518         2.118432         1.104722
 H        -0.159752        -0.932414         0.746250
 H        -2.750993         0.207995        -0.568853
 H        -2.690694         0.230383         1.233125
 H        -2.310286         2.106724        -2.027166
 H        -1.334452         3.381939        -1.427182
 H        -0.692619         0.645057        -1.938130
 H         0.452341         2.079031        -1.265716
 H        -1.380125         3.084997         2.900673
 H        -2.054243         1.283330         2.773211
 H        -0.000208         2.866876         1.007808
