19
Iteration:  2159
 O         0.335396        -0.306075         0.235900
 C        -0.606495         0.710664         0.151629
 C        -2.221982         0.512593         0.398239
 C        -2.160126         2.131250         0.303031
 C        -1.853609         2.425012        -1.144644
 C        -0.634197         1.343382        -1.157794
 O        -2.846931         2.815845         1.395827
 C        -1.665798         2.505094         2.238988
 C        -0.702415         1.998776         0.954446
 H         0.608232        -0.556706         1.142667
 H        -2.715949         0.012437        -0.548603
 H        -2.536050         0.164517         1.409566
 H        -2.700065         2.143954        -1.781893
 H        -1.413199         3.459020        -1.364880
 H        -0.810973         0.596189        -1.928952
 H         0.365421         1.857101        -1.213535
 H        -1.333107         3.539801         2.562952
 H        -1.816997         1.985857         3.168327
 H         0.089523         2.763134         0.651579
