19
Iteration:   830
 O         0.437470        -0.111584         0.441947
 C        -0.658708         0.780229         0.185732
 C        -2.135814         0.472201         0.353858
 C        -2.159485         2.178243         0.280161
 C        -1.898666         2.373610        -1.202002
 C        -0.712124         1.224038        -1.273070
 O        -2.761406         2.856988         1.364477
 C        -1.676461         2.350032         2.198295
 C        -0.775010         2.052559         0.988222
 H         0.061885        -0.971774         0.740183
 H        -2.600396        -0.200510        -0.390000
 H        -2.449521         0.323762         1.403252
 H        -2.822767         2.404092        -1.877961
 H        -1.369209         3.325139        -1.304202
 H        -0.961241         0.324553        -1.895300
 H         0.130524         1.766545        -1.595595
 H        -1.251986         3.154111         2.865872
 H        -2.010593         1.592930         2.961295
 H         0.077688         2.840001         0.951225
