19
Iteration:  2993
 O         0.344005        -0.209420         0.359358
 C        -0.685595         0.696964         0.156613
 C        -2.182666         0.592892         0.346656
 C        -2.098563         2.164193         0.294114
 C        -1.796694         2.406564        -1.163171
 C        -0.663874         1.320990        -1.318558
 O        -2.839497         2.812942         1.439235
 C        -1.728076         2.333172         2.247551
 C        -0.703802         2.006091         1.109235
 H         0.968065        -0.175324        -0.394643
 H        -2.844685         0.168151        -0.431454
 H        -2.452723         0.257818         1.309153
 H        -2.640152         2.394519        -1.862109
 H        -1.482545         3.464502        -1.266878
 H        -0.980843         0.570829        -2.036858
 H         0.329832         1.691710        -1.722197
 H        -1.423767         3.147466         2.893200
 H        -1.945502         1.524952         2.909658
 H         0.129055         2.694478         0.902111
