19
Iteration:   548charge 0 multiplicity 1
 O         0.216030        -0.297743         0.495540
 C        -0.655094         0.762068         0.130656
 C        -2.119786         0.554040         0.429752
 C        -2.180253         2.075124         0.299663
 C        -1.959498         2.248737        -1.197688
 C        -0.611986         1.308474        -1.286207
 O        -2.766963         2.839853         1.466800
 C        -1.492476         2.489497         2.145413
 C        -0.790423         2.178110         0.839482
 H         0.974168         0.099310         0.985873
 H        -2.661557        -0.054527        -0.279376
 H        -2.148767         0.115764         1.396589
 H        -2.795348         1.851559        -1.861524
 H        -1.680735         3.264014        -1.438468
 H        -1.015792         0.519790        -1.973669
 H         0.363702         1.823357        -1.603907
 H        -1.213520         3.355350         2.937595
 H        -1.570419         1.488349         2.636717
 H        -0.307861         3.116733         0.611239
