19
Iteration:  4405
 O         0.342786        -0.268162         0.139037
 C        -0.610237         0.731043         0.174835
 C        -2.290327         0.538978         0.342401
 C        -2.125116         2.072875         0.361154
 C        -1.727941         2.491468        -1.111719
 C        -0.510228         1.429648        -1.207397
 O        -2.827450         2.862988         1.295816
 C        -1.772828         2.345671         2.286854
 C        -0.766314         1.942413         1.140421
 H         0.239139        -0.713103         0.993998
 H        -2.763489         0.012859        -0.479825
 H        -2.671609         0.088125         1.308846
 H        -2.426088         2.186517        -1.852737
 H        -1.447681         3.586661        -1.054456
 H        -0.683800         0.870908        -2.045815
 H         0.311255         2.145159        -1.311853
 H        -1.463551         3.113940         2.995507
 H        -2.168151         1.445211         2.846603
 H        -0.111779         2.768735         0.930560
