19
Iteration:  2458
 O         0.350095        -0.204518         0.384175
 C        -0.627142         0.775081         0.191245
 C        -2.212284         0.566929         0.335722
 C        -2.113265         2.157297         0.312303
 C        -1.907847         2.386730        -1.104811
 C        -0.734095         1.288551        -1.297526
 O        -2.788026         2.849236         1.381470
 C        -1.517425         2.306219         2.251605
 C        -0.725552         2.120726         0.959468
 H         0.166486        -1.059941         0.814436
 H        -2.546706         0.040374        -0.604566
 H        -2.590251         0.184627         1.353848
 H        -2.779910         1.992115        -1.694676
 H        -1.503636         3.366321        -1.379927
 H        -1.035693         0.404013        -1.899114
 H         0.168399         1.741420        -1.761067
 H        -1.309928         3.071240         2.974588
 H        -2.024540         1.405486         2.616552
 H        -0.059266         2.978302         0.694051
