19
Iteration:  4224
 O         0.243764        -0.297681         0.333989
 C        -0.659589         0.749724         0.167197
 C        -2.141851         0.537990         0.255631
 C        -2.041999         2.084035         0.297227
 C        -1.827439         2.573051        -1.067217
 C        -0.535363         1.484301        -1.221079
 O        -2.808539         2.719081         1.362015
 C        -1.736881         2.327378         2.201770
 C        -0.755583         2.031114         1.064260
 H        -0.209765        -1.002304         0.830918
 H        -2.451776         0.006164        -0.622560
 H        -2.407308         0.161997         1.295334
 H        -2.662893         2.478728        -1.784895
 H        -1.405943         3.531819        -1.089600
 H        -0.866326         0.815636        -2.072686
 H         0.379347         2.066222        -1.494601
 H        -1.489182         3.194230         2.863011
 H        -2.083886         1.412786         2.727855
 H         0.040916         2.786384         0.973590
