19
Iteration:  3125
 O         0.322653        -0.235971         0.294375
 C        -0.700515         0.638470         0.096345
 C        -2.208340         0.426682         0.324250
 C        -2.083161         2.053657         0.308698
 C        -1.760150         2.520983        -1.085731
 C        -0.673876         1.495794        -1.317308
 O        -2.790223         2.882781         1.327238
 C        -1.719318         2.312638         2.309729
 C        -0.770813         1.956110         1.057100
 H         0.766993         0.130195         1.090583
 H        -2.894111        -0.087794        -0.284367
 H        -2.362910         0.010612         1.435972
 H        -2.649776         2.589650        -1.866707
 H        -1.406587         3.547472        -0.950411
 H        -0.649208         0.939379        -2.266791
 H         0.373905         1.922648        -1.057115
 H        -1.153993         3.172327         2.789107
 H        -2.221147         1.545115         2.977971
 H         0.088410         2.671010         0.995021
