19
Iteration:  3641charge 0 multiplicity 1
 O         0.273901        -0.245429         0.375370
 C        -0.703193         0.800607         0.113024
 C        -2.165813         0.513652         0.262540
 C        -2.065642         2.134590         0.318947
 C        -1.697633         2.627165        -1.049609
 C        -0.610355         1.370159        -1.291411
 O        -2.830054         2.784930         1.379364
 C        -1.743608         2.129301         2.241090
 C        -0.821987         2.041736         1.011797
 H         1.034448         0.168557         0.823481
 H        -2.802617         0.124433        -0.603108
 H        -2.494286         0.213468         1.298823
 H        -2.495184         2.533362        -1.809057
 H        -1.082821         3.536383        -1.135825
 H        -1.000080         0.561000        -2.021097
 H         0.427496         1.650946        -1.467177
 H        -1.456003         2.825917         3.083811
 H        -2.023646         1.112311         2.653489
 H        -0.095853         2.880918         0.960023
