19
Iteration:  2084
 O         0.318959        -0.265338         0.434764
 C        -0.670641         0.805987         0.175246
 C        -2.189025         0.566335         0.390923
 C        -2.125673         2.140289         0.246046
 C        -1.925509         2.381463        -1.235844
 C        -0.655534         1.365229        -1.273491
 O        -2.725647         2.727635         1.418434
 C        -1.604725         2.386449         2.231189
 C        -0.736117         2.131155         0.964267
 H        -0.026921        -0.774832         1.175019
 H        -2.796693         0.241604        -0.535722
 H        -2.667442         0.090632         1.260682
 H        -2.674058         2.186027        -1.999228
 H        -1.628659         3.477875        -1.392657
 H        -0.861933         0.468901        -1.885628
 H         0.303202         1.806043        -1.657542
 H        -1.199960         3.167959         2.881115
 H        -1.828767         1.476915         2.805951
 H         0.199767         2.788702         0.855863
