19
Iteration:  1384charge 0 multiplicity 1
 O         0.305074        -0.125230         0.526220
 C        -0.680041         0.751839         0.186780
 C        -2.174164         0.466334         0.281547
 C        -2.177127         2.057813         0.201527
 C        -1.867490         2.520013        -1.190283
 C        -0.622615         1.410300        -1.211537
 O        -2.739024         2.863574         1.379712
 C        -1.632165         2.287121         2.211049
 C        -0.757133         1.979150         0.987933
 H         0.165073        -1.047297         0.198714
 H        -2.568345        -0.258577        -0.434832
 H        -2.352882         0.077814         1.318501
 H        -2.654748         2.076784        -1.882836
 H        -1.598180         3.518608        -1.457408
 H        -0.680891         0.687523        -2.075261
 H         0.349260         1.858679        -1.304087
 H        -1.367923         3.164387         2.780311
 H        -1.968289         1.353175         2.840762
 H        -0.029931         2.743449         1.060126
