19
Iteration:  1037
 O         0.267209        -0.359928         0.386564
 C        -0.589982         0.794241         0.214134
 C        -2.109258         0.517820         0.287085
 C        -2.120137         2.086788         0.289930
 C        -1.932945         2.334754        -1.199964
 C        -0.580389         1.535459        -1.244404
 O        -2.817715         2.679523         1.333707
 C        -1.674047         2.432824         2.262130
 C        -0.676156         2.201161         1.043234
 H        -0.310192        -0.938026         0.895107
 H        -2.819972         0.020714        -0.402712
 H        -2.499101         0.243479         1.302136
 H        -2.640059         1.868567        -1.903931
 H        -1.664643         3.326146        -1.471629
 H        -0.482734         0.801994        -2.110344
 H         0.251343         2.162497        -1.385446
 H        -1.381012         3.419154         2.746324
 H        -2.032618         1.765459         3.051666
 H         0.007500         3.021898         1.063872
