19
Iteration:  1920charge 0 multiplicity 1
 O         0.248397        -0.355666         0.430167
 C        -0.715273         0.744445         0.154197
 C        -2.213632         0.537836         0.390606
 C        -2.075251         2.167879         0.231951
 C        -1.803774         2.453473        -1.189437
 C        -0.649040         1.341273        -1.275069
 O        -2.860888         2.669596         1.515647
 C        -1.592941         2.465923         2.188550
 C        -0.712262         2.158051         0.872357
 H         0.568327        -0.071748         1.325854
 H        -2.653423        -0.164238        -0.419526
 H        -2.416384         0.119471         1.402018
 H        -2.540316         2.336839        -2.007645
 H        -1.369965         3.501589        -1.336591
 H        -0.770732         0.618874        -2.112224
 H         0.307166         1.924129        -1.474767
 H        -1.118408         3.441243         2.470730
 H        -1.787801         1.552528         2.956645
 H         0.138411         2.930260         0.724909
