19
Iteration:  3423charge 0 multiplicity 1
 O         0.214882        -0.408581         0.275401
 C        -0.620291         0.719467         0.126202
 C        -2.165440         0.486403         0.229120
 C        -2.187112         2.088831         0.343029
 C        -1.768262         2.511667        -1.060962
 C        -0.470222         1.540435        -1.135564
 O        -2.859741         2.811873         1.428024
 C        -1.709023         2.396351         2.241798
 C        -0.836050         1.992161         1.003290
 H         1.166781        -0.180835         0.237813
 H        -2.691238        -0.221144        -0.618239
 H        -2.402168        -0.153091         1.111375
 H        -2.491919         2.262958        -1.882896
 H        -1.461631         3.563755        -1.118898
 H        -0.192100         1.143203        -2.167425
 H         0.315967         2.324715        -1.035666
 H        -1.392546         3.330800         2.829891
 H        -1.842462         1.445929         2.833465
 H        -0.206800         2.845758         0.733757
