19
Iteration:  1733
 O         0.327612        -0.226202         0.327430
 C        -0.693848         0.725636         0.225761
 C        -2.210814         0.510180         0.414111
 C        -1.960766         2.181504         0.354370
 C        -1.886620         2.306979        -1.174575
 C        -0.622529         1.391409        -1.241822
 O        -2.756568         2.910058         1.229077
 C        -1.753731         2.373775         2.311961
 C        -0.724672         2.011323         1.096428
 H         0.690545        -0.257149        -0.551140
 H        -2.945977         0.248482        -0.326396
 H        -2.445845         0.031767         1.373432
 H        -2.760240         1.799419        -1.665312
 H        -1.733594         3.210434        -1.592916
 H        -0.819559         0.581927        -1.967173
 H         0.355639         1.779057        -1.320949
 H        -1.472109         3.089637         2.995476
 H        -2.375457         1.478463         2.624119
 H         0.032231         2.740936         0.834362
