19
Iteration:  1047
 O         0.267215        -0.281422         0.367966
 C        -0.630659         0.731381         0.129233
 C        -2.096806         0.541848         0.267477
 C        -2.044528         2.147879         0.319088
 C        -1.878867         2.416894        -1.251517
 C        -0.583497         1.401318        -1.203427
 O        -2.851140         2.669384         1.340695
 C        -1.662410         2.456420         2.343491
 C        -0.774801         2.176896         1.066005
 H        -0.037829        -0.858173         1.068925
 H        -2.535257        -0.084399        -0.560634
 H        -2.373397         0.177077         1.301283
 H        -2.759295         1.952997        -1.693008
 H        -1.747905         3.374458        -1.768541
 H        -0.654014         0.561657        -1.989570
 H         0.337934         1.951335        -1.281270
 H        -1.475787         3.372271         2.904574
 H        -1.826925         1.635876         3.074050
 H        -0.103751         2.885976         0.696591
