19
Iteration:  1210
 O         0.425181        -0.187788         0.338496
 C        -0.641862         0.764978         0.236986
 C        -2.204410         0.495065         0.301912
 C        -2.138123         2.076038         0.300073
 C        -1.806983         2.478035        -1.150184
 C        -0.656467         1.316552        -1.243069
 O        -2.789929         2.825285         1.304825
 C        -1.670801         2.401648         2.269029
 C        -0.816928         2.012684         1.046966
 H        -0.065778        -0.776137         0.953666
 H        -2.345270        -0.151851        -0.565576
 H        -2.581174         0.102500         1.246368
 H        -2.705853         2.338904        -1.805740
 H        -1.464638         3.506611        -1.289430
 H        -1.115207         0.499983        -1.842035
 H         0.239622         1.690106        -1.648599
 H        -1.152396         3.156336         2.792991
 H        -2.089126         1.686747         2.972714
 H        -0.229556         2.859040         0.886525
