19
Iteration:  2492charge 0 multiplicity 1
 O         0.374476        -0.191352         0.308677
 C        -0.673373         0.696481         0.190918
 C        -2.163907         0.540370         0.452792
 C        -2.102919         2.194174         0.294018
 C        -1.829326         2.411553        -1.175175
 C        -0.748158         1.273372        -1.364027
 O        -2.781445         2.771549         1.407905
 C        -1.651657         2.455154         2.257188
 C        -0.714617         2.075047         1.058831
 H         0.108601        -1.137974         0.374121
 H        -2.670941        -0.273884        -0.145665
 H        -2.376654         0.177516         1.497702
 H        -2.723984         2.348857        -1.847648
 H        -1.479835         3.430178        -1.394307
 H        -1.005925         0.505937        -2.087285
 H         0.180839         1.823567        -1.756101
 H        -1.390244         3.269544         2.955923
 H        -2.151644         1.764931         2.941613
 H         0.055533         2.707781         0.561671
