19
Iteration:   488charge 0 multiplicity 1
 O         0.377859        -0.313147         0.318651
 C        -0.543813         0.711259         0.140740
 C        -2.207139         0.483172         0.438825
 C        -2.142597         2.031772         0.377483
 C        -1.912610         2.261271        -1.107623
 C        -0.768515         1.223068        -1.331359
 O        -2.789573         2.913287         1.308118
 C        -1.611757         2.620672         2.260434
 C        -0.741151         2.198833         1.000221
 H         0.677427        -0.054269         1.230024
 H        -2.702064        -0.237696        -0.295624
 H        -2.364712        -0.040635         1.428523
 H        -2.803538         2.351051        -1.721698
 H        -1.414419         3.254346        -1.249022
 H        -1.005124         0.395868        -2.021199
 H         0.047531         1.713186        -1.783644
 H        -1.254853         3.476071         2.694533
 H        -1.867563         1.757741         2.922319
 H        -0.171782         3.067752         0.556756
