19
Iteration:  4726
 O         0.174095        -0.320441         0.559352
 C        -0.643465         0.769336         0.211348
 C        -2.110558         0.512416         0.178668
 C        -2.165949         2.124658         0.345014
 C        -1.810697         2.501452        -1.072672
 C        -0.471358         1.651817        -1.316492
 O        -2.793228         2.760453         1.350346
 C        -1.691510         2.217997         2.191261
 C        -0.783654         2.007896         1.020841
 H         0.074367        -0.956742        -0.202441
 H        -2.452476         0.096268        -0.775862
 H        -2.229000        -0.059724         1.106762
 H        -2.477737         2.161885        -1.934010
 H        -1.666964         3.590148        -1.125929
 H        -0.645253         0.971397        -2.260936
 H         0.348138         2.268908        -1.516347
 H        -1.443084         2.946182         2.982547
 H        -2.004534         1.376363         2.829508
 H        -0.053827         2.785644         0.797156
