19
Iteration:  2842charge 0 multiplicity 1
 O         0.402406        -0.167603         0.369977
 C        -0.678191         0.716468         0.292911
 C        -2.252423         0.588703         0.325518
 C        -2.096829         2.097788         0.336756
 C        -1.841516         2.462193        -1.121300
 C        -0.715871         1.308657        -1.255075
 O        -2.740024         2.794302         1.352779
 C        -1.703426         2.312211         2.224486
 C        -0.701462         2.081388         0.932216
 H         0.151672        -1.041731         0.014843
 H        -2.852813        -0.009572        -0.418692
 H        -2.586394         0.215582         1.298932
 H        -2.796987         2.379144        -1.755516
 H        -1.326630         3.426059        -1.257956
 H        -0.943686         0.543583        -1.938598
 H         0.296148         1.785725        -1.481009
 H        -1.443397         3.314200         2.697581
 H        -1.886695         1.446958         2.863558
 H         0.093954         2.756684         0.729057
