19
Iteration:   944charge 0 multiplicity 1
 O         0.324025        -0.170588         0.568187
 C        -0.622327         0.779734         0.198710
 C        -2.137454         0.528295         0.412044
 C        -2.137514         2.035226         0.208697
 C        -1.833297         2.485881        -1.238898
 C        -0.722080         1.303650        -1.384814
 O        -2.782102         2.796588         1.394135
 C        -1.712993         2.305198         2.230445
 C        -0.716688         2.068065         1.024139
 H         0.936863        -0.223544        -0.192652
 H        -2.779588        -0.054306        -0.232473
 H        -2.499503         0.395671         1.389434
 H        -2.680282         2.281451        -1.934097
 H        -1.507248         3.567083        -1.122893
 H        -0.957056         0.596998        -2.151535
 H         0.345214         1.634650        -1.742555
 H        -1.314890         2.983173         2.999950
 H        -2.057042         1.414174         2.721109
 H        -0.148572         2.963519         0.613519
