19
Iteration:  1125charge 0 multiplicity 1
 O         0.373668        -0.276079         0.347143
 C        -0.623020         0.757557         0.181304
 C        -2.122820         0.595928         0.289180
 C        -2.124216         2.101414         0.301932
 C        -1.891406         2.371448        -1.164616
 C        -0.606084         1.375037        -1.267637
 O        -2.776049         2.836925         1.285992
 C        -1.698681         2.359821         2.318329
 C        -0.861319         2.081035         1.097880
 H         0.529880        -0.433524         1.281588
 H        -2.698385         0.158073        -0.575398
 H        -2.419221         0.063241         1.228214
 H        -2.744962         2.042298        -1.832211
 H        -1.612903         3.390149        -1.324312
 H        -0.857329         0.479942        -2.005937
 H         0.279841         1.808355        -1.689237
 H        -1.310129         3.159153         3.061851
 H        -2.153389         1.526626         2.796477
 H        -0.021065         2.775918         0.985164
