19
Iteration:  2317charge 0 multiplicity 1
 O         0.231788        -0.269831         0.494152
 C        -0.631908         0.731667         0.190003
 C        -2.192650         0.536294         0.224655
 C        -2.141995         2.153539         0.318463
 C        -1.899933         2.347889        -1.212947
 C        -0.650900         1.384115        -1.290742
 O        -2.763835         2.767568         1.497121
 C        -1.576730         2.447702         2.323536
 C        -0.748310         2.112535         0.881064
 H         0.769650        -0.537615        -0.279035
 H        -2.664889        -0.002791        -0.588166
 H        -2.576900         0.137240         1.191711
 H        -2.715772         2.075946        -1.896048
 H        -1.656318         3.374781        -1.341844
 H        -0.699950         0.497646        -1.972902
 H         0.342453         1.797683        -1.434987
 H        -1.235711         3.304632         2.850587
 H        -1.564151         1.521593         2.860034
 H         0.037861         2.950866         0.693022
