19
Iteration:  2463
 O         0.373709        -0.192965         0.367896
 C        -0.630828         0.787890         0.215545
 C        -2.185349         0.621879         0.371112
 C        -2.137908         2.191407         0.320728
 C        -1.869683         2.377225        -1.149181
 C        -0.763540         1.260056        -1.320594
 O        -2.791377         2.834723         1.354074
 C        -1.536096         2.249525         2.272805
 C        -0.725828         2.107999         0.994035
 H         0.006016        -1.012652         0.748997
 H        -2.544029         0.070096        -0.466244
 H        -2.509898         0.235798         1.278997
 H        -2.710962         1.985906        -1.688875
 H        -1.642167         3.433406        -1.382537
 H        -1.166332         0.476081        -1.963125
 H         0.197228         1.635201        -1.727348
 H        -1.334354         3.123408         2.938658
 H        -1.995908         1.428520         2.838443
 H         0.002207         2.861331         0.557833
