19
Iteration:  3301charge 0 multiplicity 1
 O         0.218729        -0.431772         0.300681
 C        -0.671730         0.655700         0.139795
 C        -2.135334         0.494393         0.203085
 C        -2.132692         2.102884         0.316228
 C        -1.841247         2.570693        -1.129154
 C        -0.490384         1.636318        -1.213506
 O        -2.822242         2.755104         1.375794
 C        -1.698143         2.422416         2.311564
 C        -0.804411         1.925595         1.088553
 H         0.925867        -0.149353         0.928035
 H        -2.595674         0.148469        -0.731162
 H        -2.318327        -0.068327         1.080343
 H        -2.675586         2.183290        -1.741397
 H        -1.559485         3.550827        -1.285698
 H        -0.516731         1.031975        -2.173070
 H         0.449807         2.179584        -1.206643
 H        -1.288850         3.377715         2.779149
 H        -2.040372         1.853823         3.207037
 H        -0.026055         2.657163         0.856014
