19
Iteration:  3533
 O         0.317606        -0.367396         0.327811
 C        -0.642739         0.722050         0.233887
 C        -2.238817         0.593630         0.212240
 C        -2.068140         2.110353         0.293707
 C        -1.804542         2.544603        -1.092107
 C        -0.567001         1.477490        -1.186393
 O        -2.839795         2.746035         1.351453
 C        -1.740754         2.291037         2.244192
 C        -0.781088         2.025745         1.119668
 H         0.977925        -0.023912        -0.308520
 H        -2.602942         0.218972        -0.833600
 H        -2.727088         0.044661         1.096816
 H        -2.553417         2.460106        -1.858194
 H        -1.334590         3.558827        -1.182418
 H        -0.703592         0.725086        -2.030230
 H         0.352631         2.127155        -1.387625
 H        -1.365355         3.037333         3.003717
 H        -2.096991         1.426188         2.884862
 H        -0.059004         2.826308         0.989099
