19
Iteration:  2456
 O         0.344617        -0.208521         0.389658
 C        -0.631604         0.766769         0.180170
 C        -2.215543         0.542704         0.325770
 C        -2.101581         2.136574         0.314468
 C        -1.924092         2.387035        -1.097636
 C        -0.718605         1.305401        -1.284613
 O        -2.782269         2.855593         1.395171
 C        -1.522909         2.336456         2.236023
 C        -0.721327         2.127472         0.942127
 H         0.180413        -1.053945         0.850363
 H        -2.601398         0.023915        -0.624860
 H        -2.615272         0.155574         1.325046
 H        -2.806498         2.060052        -1.717241
 H        -1.467892         3.352789        -1.398778
 H        -0.977921         0.383278        -1.884182
 H         0.125311         1.764151        -1.741561
 H        -1.271083         3.047204         3.004997
 H        -1.989496         1.373283         2.571286
 H        -0.118873         2.969841         0.802240
