19
Iteration:   319charge 0 multiplicity 1
 O         0.370516        -0.263356         0.315416
 C        -0.653633         0.748903         0.161247
 C        -2.177996         0.462981         0.638867
 C        -2.182104         1.983820         0.355632
 C        -2.036830         2.252835        -1.059764
 C        -0.618436         1.431678        -1.254172
 O        -2.782444         2.939912         1.250233
 C        -1.627246         2.513193         2.102454
 C        -0.620157         2.077474         0.930420
 H         0.094119        -1.178116         0.092794
 H        -2.869473        -0.163758        -0.001148
 H        -2.053360         0.344754         1.729616
 H        -2.775761         1.870796        -1.818048
 H        -1.893694         3.374339        -1.150432
 H        -0.613526         0.847347        -2.130197
 H         0.296388         2.106991        -1.133523
 H        -1.372510         3.501902         2.566177
 H        -1.962156         1.719273         2.793510
 H         0.161057         2.751887         0.638885
