19
Iteration:   723charge 0 multiplicity 1
 O         0.415824        -0.255361         0.262951
 C        -0.686030         0.773646         0.284151
 C        -2.174266         0.450641         0.501986
 C        -2.081090         2.107908         0.332892
 C        -1.853968         2.369245        -1.180869
 C        -0.728497         1.295658        -1.263818
 O        -2.800608         2.830142         1.284580
 C        -1.677917         2.535096         2.201958
 C        -0.756425         2.075549         1.018062
 H         0.623227        -0.609258         1.147400
 H        -2.661718        -0.143004        -0.225448
 H        -2.404668         0.188279         1.525562
 H        -2.850085         2.045559        -1.714149
 H        -1.617044         3.340211        -1.497921
 H        -1.099120         0.683709        -2.146801
 H         0.247042         1.695758        -1.708310
 H        -1.414818         3.538666         2.659668
 H        -1.909363         1.737796         2.829559
 H         0.164769         2.682394         0.771162
