19
Iteration:  1040charge 0 multiplicity 1
 O         0.266393        -0.339398         0.381986
 C        -0.600697         0.773181         0.187282
 C        -2.106121         0.516163         0.267452
 C        -2.103050         2.104050         0.318343
 C        -1.922514         2.365015        -1.217654
 C        -0.588411         1.492625        -1.232319
 O        -2.821670         2.669632         1.322383
 C        -1.667574         2.430239         2.291871
 C        -0.703487         2.206912         1.051595
 H        -0.250399        -0.930267         0.958954
 H        -2.774361        -0.023901        -0.386319
 H        -2.470782         0.264407         1.242690
 H        -2.696208         1.857315        -1.875598
 H        -1.668950         3.332218        -1.613649
 H        -0.513831         0.786263        -2.022267
 H         0.312358         2.100942        -1.360173
 H        -1.385903         3.433743         2.841778
 H        -1.995955         1.779157         3.108358
 H         0.054808         3.100205         0.971802
