19
Iteration:  4183
 O         0.304304        -0.259792         0.378665
 C        -0.623877         0.727292         0.163470
 C        -2.238151         0.543749         0.136796
 C        -2.185274         2.160128         0.263192
 C        -1.726585         2.547347        -1.067791
 C        -0.536528         1.428556        -1.244089
 O        -2.833141         2.700176         1.485482
 C        -1.696162         2.279360         2.225538
 C        -0.798998         2.039381         0.988947
 H         0.374872        -0.559030         1.305796
 H        -2.852841         0.354357        -0.765326
 H        -2.789156         0.234834         1.042908
 H        -2.475513         2.516171        -1.978725
 H        -1.393191         3.568004        -1.037790
 H        -0.633039         0.661624        -1.998375
 H         0.418314         1.759812        -1.399388
 H        -1.260048         3.100647         2.939842
 H        -1.811600         1.424863         2.831270
 H        -0.031597         2.825218         0.778380
