19
Iteration:  3179
 O         0.146432        -0.323695         0.350847
 C        -0.618314         0.772990         0.116280
 C        -2.182904         0.617650         0.299163
 C        -2.106681         2.185383         0.325827
 C        -1.762111         2.434682        -1.228304
 C        -0.504273         1.512273        -1.255583
 O        -2.860217         2.665556         1.413355
 C        -1.670815         2.278596         2.314986
 C        -0.773200         2.092313         1.088258
 H         0.779102        -0.537669        -0.375940
 H        -2.745134        -0.078792        -0.267228
 H        -2.289799         0.269789         1.458317
 H        -2.645655         2.155016        -1.914679
 H        -1.564851         3.462681        -1.531123
 H        -0.571420         0.717834        -2.010441
 H         0.598771         1.847770        -1.377206
 H        -1.419589         3.208132         2.950007
 H        -1.859984         1.463722         3.137045
 H        -0.031098         2.939133         0.917885
