19
Iteration:  2746charge 0 multiplicity 1
 O         0.408542        -0.254353         0.222628
 C        -0.694654         0.706768         0.162650
 C        -2.175963         0.567612         0.400670
 C        -2.122335         2.099120         0.304080
 C        -1.814430         2.363139        -1.184064
 C        -0.705518         1.309353        -1.333358
 O        -2.812851         2.911236         1.428302
 C        -1.691481         2.453450         2.311887
 C        -0.758516         1.976912         1.049761
 H         0.573134        -0.361237         1.189073
 H        -2.848230        -0.100447        -0.144037
 H        -2.320339         0.229872         1.433219
 H        -2.616152         2.321522        -1.905066
 H        -1.362097         3.332311        -1.282334
 H        -0.937593         0.398314        -1.898333
 H         0.219280         1.759804        -1.751643
 H        -1.352168         3.385637         2.823781
 H        -1.822801         1.610839         2.986156
 H        -0.088863         2.845900         0.726143
