19
Iteration:  3295
 O         0.195011        -0.399570         0.266109
 C        -0.665802         0.709000         0.120005
 C        -2.116430         0.478499         0.222575
 C        -2.147826         2.095482         0.327924
 C        -1.824245         2.546364        -1.136369
 C        -0.499138         1.574886        -1.192828
 O        -2.854429         2.750369         1.355603
 C        -1.665242         2.435565         2.328122
 C        -0.772669         1.943805         1.117011
 H         0.902009        -0.322526         0.921816
 H        -2.534777         0.050516        -0.728940
 H        -2.497953        -0.082573         1.127600
 H        -2.724890         2.380273        -1.784744
 H        -1.441988         3.619267        -1.458606
 H        -0.499024         0.987601        -2.098446
 H         0.390058         2.241180        -1.207714
 H        -1.316581         3.317304         2.831079
 H        -2.042615         1.717982         3.060209
 H         0.023643         2.710886         1.086990
