19
Iteration:  1430charge 0 multiplicity 1
 O         0.269106        -0.295551         0.456095
 C        -0.642983         0.756748         0.184795
 C        -2.053883         0.534090         0.321493
 C        -2.098316         2.150344         0.285364
 C        -1.880783         2.508627        -1.248616
 C        -0.546724         1.407939        -1.273557
 O        -2.884676         2.624567         1.406284
 C        -1.660373         2.487490         2.240694
 C        -0.740288         2.065983         1.039108
 H        -0.280377        -1.071983         0.196325
 H        -2.719047        -0.050954        -0.382661
 H        -2.400909         0.236494         1.309222
 H        -2.648230         2.388382        -2.070589
 H        -1.519431         3.541618        -1.303843
 H        -0.782177         0.492959        -1.957767
 H         0.294963         1.889996        -1.691922
 H        -1.293869         3.533327         2.618173
 H        -1.982861         1.755176         3.042806
 H         0.083484         2.729936         0.995306
