19
Iteration:  1055
 O         0.304086        -0.235752         0.335480
 C        -0.664403         0.741681         0.185503
 C        -2.106767         0.558471         0.306516
 C        -2.068507         2.173184         0.242770
 C        -1.815915         2.391516        -1.209776
 C        -0.578167         1.338558        -1.252166
 O        -2.883759         2.702996         1.425835
 C        -1.683967         2.474295         2.301627
 C        -0.800122         2.084365         1.046826
 H         0.116894        -0.666444         1.174339
 H        -2.482001         0.048161        -0.604611
 H        -2.426509         0.038198         1.236278
 H        -2.690899         2.019445        -1.727868
 H        -1.603068         3.509889        -1.544979
 H        -0.735620         0.535638        -2.011941
 H         0.449982         1.846769        -1.469633
 H        -1.488947         3.330020         2.835162
 H        -1.777803         1.505894         2.851957
 H        -0.054250         2.860518         0.762397
