19
Iteration:  1292
 O         0.196099        -0.360079         0.498892
 C        -0.598957         0.724851         0.161096
 C        -2.120078         0.492769         0.290989
 C        -2.119482         2.063732         0.322486
 C        -1.841058         2.462615        -1.115166
 C        -0.547561         1.521456        -1.213102
 O        -2.862617         2.742953         1.342615
 C        -1.658296         2.421268         2.181769
 C        -0.814365         2.070306         0.990045
 H         0.993492        -0.284626        -0.033127
 H        -2.806851        -0.082429        -0.389601
 H        -2.252206        -0.033999         1.252744
 H        -2.652838         2.135327        -1.714128
 H        -1.610959         3.572477        -1.214390
 H        -0.636682         0.930802        -2.103482
 H         0.333329         2.151417        -1.609240
 H        -1.193335         3.425544         2.312377
 H        -1.733724         1.801979         3.064642
 H         0.030971         2.811316         0.700323
