19
Iteration:  2687charge 0 multiplicity 1
 O         0.271526        -0.286874         0.440765
 C        -0.643849         0.761491         0.145783
 C        -2.127397         0.560137         0.452545
 C        -2.057325         2.148021         0.330489
 C        -1.969835         2.410914        -1.255300
 C        -0.644590         1.429726        -1.366430
 O        -2.757759         2.730725         1.405457
 C        -1.610619         2.420994         2.251238
 C        -0.698484         2.028001         0.948169
 H        -0.248127        -1.109908         0.537074
 H        -2.774208         0.156224        -0.348219
 H        -2.133441         0.331494         1.528102
 H        -3.001254         2.038789        -1.564165
 H        -1.897860         3.511120        -1.495426
 H        -0.704155         0.607430        -2.067177
 H         0.224930         2.093836        -1.528527
 H        -1.428074         3.353886         2.819551
 H        -1.662264         1.564366         2.980683
 H        -0.142855         2.885399         0.659483
