19
Iteration:    12charge 0 multiplicity 1
 O         0.331223        -0.234395         0.301345
 C        -0.717293         0.791947         0.275884
 C        -2.126862         0.448667         0.441991
 C        -2.258009         2.066790         0.253048
 C        -1.894472         2.411331        -1.284073
 C        -0.643186         1.407335        -1.210990
 O        -2.817755         2.685998         1.375510
 C        -1.569027         2.523724         2.205123
 C        -0.718514         2.069759         1.020516
 H         0.491014        -0.503191         1.235214
 H        -2.444681        -0.263255        -0.307605
 H        -2.447217         0.159690         1.443901
 H        -2.447725         2.165538        -2.170268
 H        -1.535068         3.442633        -1.361172
 H        -0.691786         0.668596        -2.000874
 H         0.301566         1.977336        -1.303165
 H        -1.381821         3.533425         2.436336
 H        -1.673289         1.905604         3.127478
 H         0.154934         2.696648         0.786250
