19
Iteration:  3436
 O         0.177491        -0.448067         0.295429
 C        -0.653060         0.724242         0.097222
 C        -2.114783         0.526962         0.220624
 C        -2.138751         2.097326         0.336142
 C        -1.751545         2.487511        -1.166206
 C        -0.461080         1.652716        -1.215498
 O        -2.885434         2.703301         1.431364
 C        -1.701260         2.386438         2.292223
 C        -0.812658         2.035340         1.091425
 H         1.058978        -0.058117         0.432542
 H        -2.799758         0.124985        -0.597839
 H        -2.249330         0.247415         1.293766
 H        -2.578983         2.074167        -1.766519
 H        -1.667782         3.601841        -1.437068
 H        -0.577616         0.855155        -1.935254
 H         0.584104         2.076152        -1.178238
 H        -1.288369         3.219992         2.884994
 H        -2.092394         1.684969         3.061188
 H        -0.054437         2.797734         0.878819
