19
Iteration:  2129
 O         0.347725        -0.216790         0.180985
 C        -0.607818         0.761155         0.201516
 C        -2.283295         0.485945         0.502257
 C        -2.145605         2.023181         0.287562
 C        -1.860009         2.386295        -1.167907
 C        -0.671981         1.388649        -1.242266
 O        -2.711289         2.918754         1.262411
 C        -1.741222         2.440756         2.293789
 C        -0.648187         1.959257         1.109290
 H         0.525348        -0.625723         1.042166
 H        -2.816859        -0.253947        -0.134286
 H        -2.517472         0.211827         1.517033
 H        -2.696781         2.161191        -1.816133
 H        -1.604080         3.444244        -1.396986
 H        -0.772208         0.595023        -2.016144
 H         0.342452         1.769931        -1.407301
 H        -1.530344         3.340084         2.781066
 H        -2.184304         1.657550         2.930725
 H        -0.005273         2.777500         0.722535
