19
Iteration:  3096
 O         0.349643        -0.218906         0.336646
 C        -0.616961         0.754657         0.207810
 C        -2.247221         0.606174         0.195323
 C        -2.160009         2.097193         0.257411
 C        -1.806677         2.478747        -1.192200
 C        -0.672480         1.422659        -1.215475
 O        -2.804846         2.774355         1.443508
 C        -1.574986         2.228772         2.291865
 C        -0.804518         2.071925         1.011639
 H         0.311680        -0.703405         1.175414
 H        -2.810534         0.145106        -0.631192
 H        -2.577765         0.196051         1.161218
 H        -2.517666         2.208286        -1.976113
 H        -1.446742         3.494945        -1.177184
 H        -0.881355         0.568195        -1.903067
 H         0.327690         1.710252        -1.380292
 H        -1.176120         3.027649         2.909982
 H        -1.909075         1.389506         2.840055
 H        -0.021909         2.806155         0.956936
