19
Iteration:  1407
 O         0.287806        -0.245982         0.504263
 C        -0.609004         0.757430         0.177221
 C        -2.213538         0.592785         0.283186
 C        -2.138767         2.088567         0.325059
 C        -1.754894         2.386791        -1.156790
 C        -0.583590         1.421808        -1.271914
 O        -2.842117         2.663812         1.430028
 C        -1.602157         2.420406         2.259349
 C        -0.787652         2.141384         0.888748
 H        -0.167294        -1.060919         0.284952
 H        -2.724617         0.311419        -0.662702
 H        -2.752842         0.072126         1.095277
 H        -2.551940         2.097105        -1.948779
 H        -1.413777         3.347857        -1.396875
 H        -0.655934         0.693978        -2.155625
 H         0.270073         2.007386        -1.489008
 H        -1.456675         3.346339         2.881441
 H        -1.792988         1.455179         2.829232
 H        -0.185378         2.980754         0.704971
