19
Iteration:   905charge 0 multiplicity 1
 O         0.214608        -0.346298         0.392661
 C        -0.655015         0.725387         0.213057
 C        -2.169963         0.510884         0.275526
 C        -2.092414         1.995265         0.287270
 C        -1.952548         2.327441        -1.209110
 C        -0.573279         1.480395        -1.217012
 O        -2.805928         2.735990         1.386014
 C        -1.614350         2.568529         2.216137
 C        -0.708018         2.135918         1.049070
 H         1.095587        -0.008746         0.600485
 H        -2.520502        -0.106477        -0.596141
 H        -2.576812         0.109786         1.239124
 H        -2.740723         1.895320        -1.797273
 H        -1.930263         3.395978        -1.497358
 H        -0.479949         0.765718        -2.072921
 H         0.261634         2.138677        -1.160977
 H        -1.369561         3.530506         2.671443
 H        -1.685447         1.841403         3.112654
 H         0.007539         2.914434         0.802314
