19
Iteration:   589charge 0 multiplicity 1
 O         0.384157        -0.282407         0.384257
 C        -0.662559         0.697633         0.203362
 C        -2.178011         0.510460         0.510781
 C        -2.034775         2.075888         0.309933
 C        -1.989509         2.342216        -1.139115
 C        -0.801708         1.311486        -1.244167
 O        -2.720671         2.823562         1.192623
 C        -1.686489         2.546633         2.171560
 C        -0.649898         2.108282         1.107272
 H         1.039648         0.081821        -0.216531
 H        -2.816719        -0.072417        -0.112715
 H        -2.432749         0.434477         1.554449
 H        -2.851640         1.979239        -1.591807
 H        -1.733987         3.405482        -1.446225
 H        -1.048408         0.453938        -1.844702
 H         0.105970         1.747600        -1.687879
 H        -1.490025         3.374301         2.771739
 H        -2.034360         1.760557         2.823356
 H         0.107564         2.709324         0.624139
