19
Iteration:  2161charge 0 multiplicity 1
 O         0.333755        -0.320193         0.251766
 C        -0.620758         0.733699         0.150740
 C        -2.216375         0.513982         0.374003
 C        -2.173408         2.116681         0.298544
 C        -1.846383         2.426667        -1.155438
 C        -0.628128         1.342152        -1.172960
 O        -2.850304         2.816320         1.412967
 C        -1.667113         2.519980         2.250775
 C        -0.685310         2.001033         0.957368
 H         0.569696        -0.566363         1.152698
 H        -2.668650        -0.017110        -0.528911
 H        -2.469617         0.146354         1.362197
 H        -2.686378         2.131637        -1.754505
 H        -1.430152         3.447254        -1.368991
 H        -0.838458         0.573449        -1.944171
 H         0.329528         1.862396        -1.282353
 H        -1.289805         3.445367         2.592202
 H        -1.802996         2.010622         3.191878
 H         0.018080         2.821484         0.640216
