19
Iteration:  4097charge 0 multiplicity 1
 O         0.277084        -0.250097         0.211743
 C        -0.720939         0.814932         0.206465
 C        -2.125769         0.497358         0.236718
 C        -2.196998         2.142666         0.235875
 C        -1.742266         2.512469        -1.155602
 C        -0.485775         1.466833        -1.094391
 O        -2.844525         2.698935         1.401814
 C        -1.674425         2.353490         2.267913
 C        -0.794412         1.970785         1.088066
 H        -0.021165        -1.030743         0.711571
 H        -2.590949        -0.047930        -0.592766
 H        -2.607824         0.135518         1.128548
 H        -2.417438         2.437791        -2.094034
 H        -1.399273         3.527840        -1.106791
 H        -0.612054         0.617348        -1.797044
 H         0.501288         1.850933        -1.135807
 H        -1.332569         3.320043         2.818004
 H        -1.954110         1.672330         3.052680
 H        -0.181356         2.879284         0.910978
