19
Iteration:  3729
 O         0.293171        -0.391263         0.304515
 C        -0.693216         0.690701         0.196170
 C        -2.116748         0.535529         0.304179
 C        -2.119914         2.141460         0.314285
 C        -1.756578         2.584175        -1.115776
 C        -0.579174         1.494783        -1.176228
 O        -2.859269         2.742645         1.310077
 C        -1.759876         2.299234         2.306175
 C        -0.790585         2.059520         1.046871
 H         0.880890        -0.040181        -0.392772
 H        -2.622218        -0.140308        -0.455784
 H        -2.630918         0.235365         1.267196
 H        -2.526630         2.530092        -1.872664
 H        -1.243003         3.592526        -1.015577
 H        -0.609018         0.903989        -2.095892
 H         0.402158         2.006955        -1.119319
 H        -1.434356         3.182524         2.807309
 H        -2.011447         1.359045         2.832027
 H         0.057495         2.720875         0.844392
