19
Iteration:  3266charge 0 multiplicity 1
 O         0.280802        -0.302640         0.162425
 C        -0.652101         0.747189         0.185357
 C        -2.160225         0.637973         0.379868
 C        -2.109961         2.163441         0.327320
 C        -1.702908         2.538350        -1.134212
 C        -0.535740         1.407298        -1.183368
 O        -2.819132         2.717067         1.356595
 C        -1.773992         2.256314         2.286694
 C        -0.809220         2.062203         1.041373
 H         0.574786        -0.625771         1.050340
 H        -2.728187         0.164717        -0.371651
 H        -2.640115         0.123296         1.340079
 H        -2.512504         2.366839        -1.804601
 H        -1.458622         3.533629        -1.414825
 H        -0.992131         0.728164        -1.889819
 H         0.503393         1.714589        -1.497926
 H        -1.541511         3.060799         3.003782
 H        -2.115575         1.213219         2.605477
 H        -0.124650         2.982877         0.969123
