19
Iteration:  1415charge 0 multiplicity 1
 O         0.277493        -0.296911         0.494788
 C        -0.603497         0.757474         0.135429
 C        -2.201858         0.594148         0.247376
 C        -2.112319         2.123154         0.261716
 C        -1.781905         2.463037        -1.159191
 C        -0.586258         1.385283        -1.283967
 O        -2.870770         2.637438         1.451184
 C        -1.645536         2.442319         2.246911
 C        -0.766529         2.171639         0.976835
 H        -0.037577        -1.181991         0.334183
 H        -2.603425         0.048622        -0.590880
 H        -2.425476         0.221662         1.281764
 H        -2.570239         1.890335        -1.656032
 H        -1.521595         3.481729        -1.449279
 H        -0.818480         0.750543        -2.115187
 H         0.484120         1.745675        -1.373638
 H        -1.480862         3.334412         2.720012
 H        -1.620266         1.597555         3.072109
 H        -0.120167         3.065854         0.684747
