19
Iteration:  1979charge 0 multiplicity 1
 O         0.399584        -0.298336         0.236449
 C        -0.631901         0.755057         0.234919
 C        -2.219567         0.543979         0.405772
 C        -2.171662         2.158360         0.323503
 C        -1.896130         2.335047        -1.177246
 C        -0.632863         1.322348        -1.218581
 O        -2.739362         2.997206         1.328747
 C        -1.670554         2.334044         2.257896
 C        -0.803252         2.081644         1.035898
 H         0.266472        -1.028650         0.846465
 H        -2.701777         0.047576        -0.400551
 H        -2.326812        -0.013367         1.320288
 H        -2.622696         1.939593        -1.890855
 H        -1.632860         3.360937        -1.425542
 H        -0.802773         0.429417        -1.839003
 H         0.267874         1.821066        -1.551053
 H        -1.157678         3.102465         2.859169
 H        -2.019819         1.579085         2.996001
 H        -0.098958         2.872956         0.829091
