19
Iteration:   993
 O         0.446567        -0.193037         0.371468
 C        -0.651417         0.728542         0.193733
 C        -2.219838         0.476750         0.384216
 C        -2.157269         2.054778         0.300287
 C        -1.808927         2.360167        -1.196742
 C        -0.624365         1.408820        -1.252155
 O        -2.755720         2.832428         1.339509
 C        -1.745849         2.450774         2.270468
 C        -0.845927         2.078264         1.027817
 H         0.106030        -1.037393         0.043386
 H        -2.708235        -0.115211        -0.437736
 H        -2.537413        -0.043420         1.339002
 H        -2.638421         2.244931        -1.910124
 H        -1.435943         3.369095        -1.137641
 H        -0.632984         0.619662        -2.077769
 H         0.270808         1.922658        -1.501837
 H        -1.408682         3.330589         2.894291
 H        -1.924849         1.635802         3.019323
 H        -0.075870         2.799418         0.802255
