19
Iteration:  1469
 O         0.399227        -0.209216         0.360757
 C        -0.584617         0.668725         0.155894
 C        -2.193107         0.431089         0.375768
 C        -2.149365         2.126807         0.295310
 C        -1.898978         2.452154        -1.107924
 C        -0.557075         1.370079        -1.175337
 O        -2.802984         2.946666         1.310715
 C        -1.717863         2.428927         2.259630
 C        -0.835329         1.994123         0.967967
 H         0.241570        -1.102027         0.057751
 H        -2.796286         0.060956        -0.429852
 H        -2.382595        -0.133610         1.342602
 H        -2.720458         2.308871        -1.839054
 H        -1.559980         3.492855        -1.344566
 H        -0.688237         0.564257        -1.855201
 H         0.452966         1.831145        -1.331826
 H        -1.444673         3.030108         3.044874
 H        -2.044507         1.510664         2.784680
 H         0.061081         2.633460         0.710305
