19
Iteration:  3321charge 0 multiplicity 1
 O         0.254454        -0.390693         0.438869
 C        -0.655843         0.718728         0.084349
 C        -2.295959         0.517009         0.177471
 C        -2.174445         2.008674         0.298270
 C        -1.793324         2.536297        -1.061159
 C        -0.508773         1.650760        -1.226382
 O        -2.808247         2.757323         1.368675
 C        -1.633896         2.365355         2.226857
 C        -0.747749         1.926896         1.048098
 H         1.192722        -0.186035         0.590880
 H        -2.813088         0.143754        -0.694774
 H        -2.776195         0.241274         1.187410
 H        -2.596039         2.352892        -1.761082
 H        -1.608491         3.620804        -1.079991
 H        -0.562378         1.105087        -2.186957
 H         0.360117         2.320558        -1.254028
 H        -1.248804         3.164592         2.886853
 H        -1.958097         1.550668         2.932621
 H         0.005168         2.768600         1.025718
