19
Iteration:  4071charge 0 multiplicity 1
 O         0.358150        -0.339553         0.381139
 C        -0.714626         0.764459         0.103584
 C        -2.267622         0.599147         0.244083
 C        -2.113418         2.168122         0.291006
 C        -1.747057         2.543632        -1.106498
 C        -0.501842         1.503941        -1.325692
 O        -2.879297         2.606436         1.444143
 C        -1.747042         2.377506         2.240150
 C        -0.681222         2.001720         1.056279
 H         0.159876        -0.884591         1.172757
 H        -2.830359         0.168696        -0.604284
 H        -2.664113         0.086122         1.196550
 H        -2.583498         2.472499        -1.848847
 H        -1.408114         3.627312        -1.186504
 H        -0.611356         0.827979        -2.150975
 H         0.515384         1.918566        -1.432524
 H        -1.498678         3.201442         2.927283
 H        -1.933217         1.555747         2.976667
 H        -0.112009         2.893713         0.846315
