19
Iteration:  4942charge 0 multiplicity 1
 O         0.244982        -0.327552         0.232690
 C        -0.633673         0.733171         0.213332
 C        -2.146304         0.522797         0.189896
 C        -2.180888         2.106159         0.299041
 C        -1.735540         2.507207        -1.196805
 C        -0.419229         1.479637        -1.026576
 O        -2.902422         2.771881         1.379286
 C        -1.774998         2.334764         2.310902
 C        -0.843996         2.038733         1.099180
 H         1.052771        -0.230951        -0.271459
 H        -2.537817         0.150456        -0.842334
 H        -2.618620        -0.075005         0.999577
 H        -2.419582         2.172134        -2.012150
 H        -1.263446         3.493041        -1.224631
 H        -0.377203         1.129235        -2.036712
 H         0.564018         1.978384        -0.995850
 H        -1.518009         3.014890         3.065317
 H        -1.985567         1.389798         2.943437
 H        -0.154406         2.841737         1.056828
