19
Iteration:  4900charge 0 multiplicity 1
 O         0.235631        -0.262055         0.526963
 C        -0.649284         0.736650         0.107746
 C        -2.061258         0.568671         0.205751
 C        -2.002658         2.124893         0.274413
 C        -1.722633         2.671831        -1.082411
 C        -0.701282         1.499001        -1.260389
 O        -2.867692         2.723312         1.283033
 C        -1.833902         2.144671         2.284287
 C        -0.709044         1.930229         1.049759
 H         1.143026         0.037494         0.256493
 H        -2.657330         0.176297        -0.692975
 H        -2.482765         0.176772         1.174598
 H        -2.465570         2.777330        -1.919357
 H        -1.240617         3.636928        -0.836318
 H        -0.815248         0.531206        -1.925111
 H         0.189710         1.972505        -1.623884
 H        -1.698633         2.942601         2.985137
 H        -2.353153         1.232894         2.688463
 H         0.069645         2.665354         1.123490
