19
Iteration:  4361
 O         0.299992        -0.368473         0.402120
 C        -0.723862         0.757423         0.202460
 C        -2.191161         0.586436         0.202243
 C        -2.109433         2.130167         0.282550
 C        -1.822570         2.548609        -1.195544
 C        -0.591741         1.543107        -1.281980
 O        -2.783491         2.766700         1.399892
 C        -1.671878         2.213678         2.239445
 C        -0.767718         2.011961         1.097193
 H         0.885883        -0.366858         1.167664
 H        -2.700029         0.131644        -0.649728
 H        -2.591817         0.217874         1.169718
 H        -2.661863         2.291868        -1.840450
 H        -1.420047         3.637716        -1.421382
 H        -0.698152         0.737943        -1.912247
 H         0.359414         2.093187        -1.311627
 H        -1.434775         3.039111         2.906248
 H        -2.097126         1.302568         2.710411
 H         0.052406         2.689301         0.929389
