19
Iteration:  4660
 O         0.414267        -0.252095         0.368063
 C        -0.651302         0.722964         0.164528
 C        -2.163998         0.509666         0.242705
 C        -2.139319         2.114407         0.321496
 C        -1.734686         2.552760        -1.035929
 C        -0.649758         1.398103        -1.246323
 O        -2.797343         2.817536         1.309432
 C        -1.826800         2.347171         2.271578
 C        -0.821932         1.951017         1.094883
 H         0.540584        -0.469910        -0.557427
 H        -2.682141         0.169201        -0.731271
 H        -2.596579         0.018342         1.111432
 H        -2.526057         2.614387        -1.856851
 H        -1.062805         3.420895        -0.889927
 H        -0.904179         0.612972        -2.051375
 H         0.349341         1.754615        -1.385411
 H        -1.480105         3.147301         3.004036
 H        -2.211554         1.449833         2.883664
 H        -0.022679         2.729607         1.021163
