19
Iteration:  3111charge 0 multiplicity 1
 O         0.367343        -0.187476         0.319824
 C        -0.739513         0.712378         0.085172
 C        -2.299144         0.505679         0.335268
 C        -2.147684         2.124887         0.353620
 C        -1.774153         2.499420        -1.056973
 C        -0.545617         1.419328        -1.288984
 O        -2.753204         2.797421         1.413939
 C        -1.704293         2.315755         2.201628
 C        -0.768475         1.918482         0.994625
 H         0.504419        -0.172795         1.279993
 H        -2.829447         0.049140        -0.570279
 H        -2.614014         0.119966         1.283746
 H        -2.567306         2.379627        -1.751349
 H        -1.392304         3.557447        -1.214589
 H        -0.734872         0.751602        -2.139264
 H         0.434755         1.966363        -1.506036
 H        -1.392216         3.079419         2.935018
 H        -1.978826         1.422169         2.897186
 H        -0.088392         2.781379         0.687610
