19
Iteration:  1672
 O         0.285587        -0.170991         0.573601
 C        -0.697793         0.808259         0.169608
 C        -2.223060         0.555396         0.230564
 C        -2.187962         2.025731         0.285238
 C        -1.838172         2.446479        -1.173569
 C        -0.621735         1.367553        -1.264821
 O        -2.806783         2.633769         1.406796
 C        -1.538480         2.481589         2.180935
 C        -0.714109         2.015266         1.019472
 H         0.090352        -0.926134         0.010716
 H        -2.899228         0.177783        -0.571913
 H        -2.446515         0.112023         1.256891
 H        -2.540098         2.500975        -2.029668
 H        -1.191207         3.444517        -1.111991
 H        -0.838317         0.610241        -2.062854
 H         0.341651         1.899010        -1.606290
 H        -1.148438         3.514647         2.642226
 H        -1.766953         1.783180         3.035226
 H         0.011163         2.719124         0.533051
