19
Iteration:  2210
 O         0.299950        -0.241623         0.474272
 C        -0.631356         0.774616         0.209998
 C        -2.142666         0.613392         0.378874
 C        -2.132978         2.144890         0.270271
 C        -1.917292         2.423387        -1.184612
 C        -0.706125         1.419387        -1.281201
 O        -2.799595         2.745277         1.397356
 C        -1.546463         2.323636         2.059745
 C        -0.711792         2.051169         0.988667
 H        -0.064072        -1.011774         0.963622
 H        -2.790973         0.007441        -0.254723
 H        -2.474065         0.330445         1.402888
 H        -2.728691         2.096834        -1.876032
 H        -1.668367         3.475357        -1.334911
 H        -0.915420         0.586824        -1.947456
 H         0.320844         1.813313        -1.550846
 H        -1.215521         3.095318         2.871395
 H        -1.744827         1.473870         2.802081
 H         0.162510         2.720667         0.813691
