19
Iteration:  2754
 O         0.325151        -0.274672         0.228284
 C        -0.614634         0.728213         0.203408
 C        -2.140314         0.583588         0.443123
 C        -2.104114         2.092039         0.305376
 C        -1.871560         2.449949        -1.186443
 C        -0.725380         1.294233        -1.292055
 O        -2.803494         2.844195         1.404383
 C        -1.710197         2.443658         2.238886
 C        -0.739321         1.999312         1.033213
 H         0.746931        -0.256044         1.114246
 H        -2.816585         0.006715        -0.287081
 H        -2.177200         0.339490         1.441412
 H        -2.704526         2.192346        -1.877898
 H        -1.330069         3.369623        -1.425509
 H        -0.862374         0.421680        -1.850478
 H         0.240459         1.834737        -1.548365
 H        -1.267251         3.314569         2.845067
 H        -1.964658         1.633326         2.941957
 H         0.070900         2.586720         0.709734
