19
Iteration:  3782
 O         0.317462        -0.354361         0.418788
 C        -0.657122         0.744809         0.187301
 C        -2.227309         0.472296         0.234380
 C        -2.127642         2.210626         0.322395
 C        -1.802762         2.551710        -1.198576
 C        -0.606852         1.523863        -1.235763
 O        -2.798420         2.812186         1.430482
 C        -1.745732         2.199351         2.179581
 C        -0.750149         1.994999         1.066125
 H         1.180541         0.071900         0.586775
 H        -2.555115         0.112297        -0.707458
 H        -2.665159         0.111143         1.182410
 H        -2.681816         2.396288        -1.971478
 H        -1.365653         3.624605        -1.260736
 H        -0.719872         0.741029        -2.101581
 H         0.353844         2.037805        -1.329942
 H        -1.458961         2.798690         3.044599
 H        -1.951804         1.197754         2.590376
 H        -0.015293         2.853684         0.856737
