19
Iteration:  3306
 O         0.238983        -0.458722         0.334853
 C        -0.633699         0.655850         0.154958
 C        -2.183862         0.520032         0.160226
 C        -2.091716         2.098959         0.305642
 C        -1.836532         2.540380        -1.092094
 C        -0.515822         1.669489        -1.240422
 O        -2.789446         2.760076         1.408274
 C        -1.739465         2.412947         2.289984
 C        -0.824220         1.925142         1.061002
 H         0.891333         0.026427         0.864509
 H        -2.773361         0.081766        -0.687466
 H        -2.355022        -0.053502         1.146599
 H        -2.530787         2.084554        -1.839381
 H        -1.737368         3.750549        -1.085436
 H        -0.511524         1.060690        -2.122765
 H         0.481507         2.163507        -1.153667
 H        -1.273215         3.345394         2.570694
 H        -2.013264         1.848429         3.176126
 H        -0.053584         2.629888         0.706159
