19
Iteration:  1014charge 0 multiplicity 1
 O         0.281173        -0.279042         0.396929
 C        -0.634934         0.696512         0.161511
 C        -2.039046         0.449570         0.412511
 C        -2.166488         2.057993         0.354705
 C        -1.916120         2.434569        -1.169028
 C        -0.525318         1.566585        -1.203286
 O        -2.884246         2.817214         1.293595
 C        -1.634312         2.442964         2.167830
 C        -0.755089         2.028330         0.985490
 H        -0.219100        -1.111528         0.451297
 H        -2.663609        -0.280846        -0.179433
 H        -2.223273         0.141704         1.497505
 H        -2.653130         1.895577        -1.748257
 H        -1.768533         3.476854        -1.483806
 H        -0.340114         0.914999        -2.126339
 H         0.402312         2.110681        -1.181596
 H        -1.280011         3.282151         2.779314
 H        -1.984943         1.645315         2.855693
 H        -0.144976         2.846717         0.706622
