19
Iteration:   628charge 0 multiplicity 1
 O         0.338099        -0.263638         0.432429
 C        -0.621766         0.747218         0.199433
 C        -2.170973         0.416307         0.409422
 C        -2.215167         1.998044         0.262198
 C        -1.838545         2.316645        -1.254574
 C        -0.672906         1.269155        -1.263508
 O        -2.768010         2.872819         1.447876
 C        -1.592942         2.630213         2.261592
 C        -0.836459         2.169737         0.937688
 H         0.699296        -0.628030        -0.420014
 H        -2.820170        -0.326400        -0.147614
 H        -2.200814         0.185870         1.527447
 H        -2.642676         2.086024        -2.026952
 H        -1.610929         3.384716        -1.415901
 H        -0.837974         0.410059        -1.978904
 H         0.344825         1.696185        -1.564965
 H        -1.212832         3.638741         2.781453
 H        -1.713306         1.807251         3.043704
 H        -0.323349         3.079654         0.636859
