19
Iteration:    92charge 0 multiplicity 1
 O         0.441526        -0.073245         0.341918
 C        -0.637364         0.755257         0.144258
 C        -2.207973         0.557949         0.566355
 C        -2.116018         2.098907         0.293655
 C        -1.910406         2.343324        -1.170562
 C        -0.705230         1.260449        -1.199270
 O        -2.822094         2.896478         1.239139
 C        -1.614374         2.226626         2.237081
 C        -0.736044         2.079552         0.953056
 H         0.071385        -0.918667         0.693925
 H        -2.925345         0.091751        -0.171430
 H        -2.444714         0.344994         1.631783
 H        -2.695200         2.069422        -1.894572
 H        -1.555517         3.351967        -1.403777
 H        -0.724785         0.490351        -1.984833
 H         0.258600         1.897652        -1.387339
 H        -1.228176         2.968075         2.967705
 H        -2.160242         1.352897         2.700484
 H         0.048457         2.972069         0.788238
