19
Iteration:   884
 O         0.282994        -0.356205         0.278559
 C        -0.630935         0.740855         0.220143
 C        -2.114551         0.553588         0.440341
 C        -2.129307         2.109120         0.329697
 C        -1.861827         2.343704        -1.251597
 C        -0.601194         1.490615        -1.236464
 O        -2.869981         2.695972         1.327395
 C        -1.694277         2.605118         2.206786
 C        -0.701700         1.944443         1.076877
 H         0.948187        -0.116768         0.971195
 H        -2.828524         0.051724        -0.249175
 H        -2.372630         0.244597         1.487981
 H        -2.721026         1.916155        -1.800368
 H        -1.925434         3.381970        -1.537622
 H        -0.670481         0.771500        -2.083328
 H         0.181586         2.148391        -1.423308
 H        -1.143142         3.558085         2.339309
 H        -1.961751         2.089405         3.197168
 H         0.107073         2.704173         1.105371
