19
Iteration:  4324
 O         0.190423        -0.301150         0.381556
 C        -0.683408         0.812855         0.206273
 C        -2.202587         0.557692         0.170081
 C        -2.146784         2.128748         0.290491
 C        -1.642837         2.565405        -1.210281
 C        -0.557724         1.427597        -1.305826
 O        -2.840560         2.680175         1.483639
 C        -1.648922         2.252500         2.286185
 C        -0.837710         2.055308         1.034186
 H         0.606588         0.028765         1.197286
 H        -2.753599         0.030758        -0.644625
 H        -2.374735         0.110159         1.142873
 H        -2.399449         2.524038        -2.033002
 H        -1.399657         3.541764        -1.144194
 H        -0.662111         0.559654        -2.032104
 H         0.380419         1.842220        -1.646416
 H        -1.120388         3.075958         2.916757
 H        -1.775877         1.414376         2.951193
 H        -0.049631         2.847509         0.934095
