19
Iteration:   809
 O         0.387465        -0.086679         0.634466
 C        -0.691995         0.705935         0.169490
 C        -2.216526         0.585955         0.401280
 C        -2.053387         2.113598         0.263044
 C        -1.916372         2.330547        -1.223806
 C        -0.706827         1.387012        -1.393231
 O        -2.775583         2.774111         1.347704
 C        -1.658463         2.341735         2.234767
 C        -0.660860         2.017382         0.980959
 H         0.358214        -0.853255         0.041221
 H        -2.889710         0.263247        -0.375113
 H        -2.611618         0.273813         1.382641
 H        -2.792101         1.870578        -1.840291
 H        -1.741688         3.304767        -1.642586
 H        -1.170366         0.678611        -2.142652
 H         0.307002         1.732312        -1.580161
 H        -1.216593         3.183013         2.837216
 H        -1.728188         1.480596         2.918257
 H        -0.024477         2.934713         0.646545
