19
Iteration:   231
 O         0.445379        -0.147056         0.412677
 C        -0.666667         0.659377         0.228685
 C        -2.155614         0.401842         0.545183
 C        -2.118379         2.094668         0.270751
 C        -1.976696         2.390863        -1.236437
 C        -0.804840         1.372123        -1.333880
 O        -2.716763         2.959608         1.347612
 C        -1.652530         2.373614         2.183601
 C        -0.724710         1.980486         0.929605
 H         0.502044        -0.173544         1.388188
 H        -2.692940        -0.148971        -0.182920
 H        -2.229174         0.219831         1.633853
 H        -2.806464         2.164209        -1.884182
 H        -1.680809         3.445091        -1.522269
 H        -0.949991         0.573020        -2.002514
 H         0.169013         1.823491        -1.663017
 H        -1.213083         3.148589         2.768390
 H        -2.029159         1.559066         2.744492
 H        -0.108216         2.764251         0.640023
