19
Iteration:  4524
 O         0.354457        -0.244361         0.151297
 C        -0.673704         0.700499         0.193041
 C        -2.188308         0.521047         0.279674
 C        -2.092463         2.213266         0.320756
 C        -1.685873         2.490960        -1.104886
 C        -0.576127         1.386263        -1.284678
 O        -2.873535         2.846274         1.374050
 C        -1.808404         2.308107         2.332597
 C        -0.810604         1.987078         1.184290
 H         0.681776        -0.659639         0.981456
 H        -2.633966         0.079736        -0.611054
 H        -2.533691        -0.190864         1.125448
 H        -2.379901         2.223998        -1.900684
 H        -1.297841         3.510078        -1.391430
 H        -0.821552         0.582012        -1.971362
 H         0.440237         1.902761        -1.537323
 H        -1.501010         3.177786         2.924400
 H        -2.198775         1.393856         2.863759
 H        -0.007616         2.715922         1.194674
