19
Iteration:  3165charge 0 multiplicity 1
 O         0.176626        -0.389643         0.274456
 C        -0.655117         0.760571         0.143375
 C        -2.084886         0.574105         0.290833
 C        -2.058921         2.142975         0.337687
 C        -1.786630         2.426552        -1.139033
 C        -0.571349         1.407939        -1.238765
 O        -2.903029         2.742438         1.380024
 C        -1.690244         2.368160         2.350261
 C        -0.741951         2.146323         1.098285
 H         1.009275        -0.163816        -0.163593
 H        -2.576108         0.313494        -0.688581
 H        -2.463568         0.059716         1.166407
 H        -2.557118         2.107479        -1.743269
 H        -1.381937         3.454776        -1.317266
 H        -0.647971         0.719878        -2.085389
 H         0.237765         2.141701        -1.353325
 H        -1.543687         3.132364         3.110506
 H        -1.990953         1.344984         2.711686
 H         0.016997         2.964964         0.922219
