19
Iteration:  4844
 O         0.185728        -0.303380         0.276597
 C        -0.680051         0.706058         0.168770
 C        -2.207295         0.530088         0.222794
 C        -2.077089         2.140805         0.280480
 C        -1.749558         2.486865        -1.154441
 C        -0.410734         1.637018        -1.124906
 O        -2.832730         2.681732         1.367410
 C        -1.737685         2.299084         2.243870
 C        -0.814583         1.962908         1.096228
 H         0.809816        -0.284880         1.001055
 H        -2.746177         0.080805        -0.747889
 H        -2.663937         0.229186         1.149668
 H        -2.353547         1.992841        -1.940995
 H        -1.694323         3.611734        -1.336194
 H        -0.242607         1.050798        -2.109387
 H         0.470169         2.287927        -0.933930
 H        -1.433344         3.100050         2.872396
 H        -2.076489         1.563242         3.041736
 H        -0.179884         2.798395         1.038133
