19
Iteration:   817
 O         0.409645        -0.058187         0.577656
 C        -0.695366         0.685509         0.137566
 C        -2.197339         0.560016         0.397997
 C        -2.033437         2.173666         0.274359
 C        -1.894895         2.388505        -1.219042
 C        -0.747564         1.289568        -1.369316
 O        -2.790861         2.781638         1.343192
 C        -1.641759         2.368374         2.283535
 C        -0.718255         2.039368         0.971024
 H         0.297170        -1.006859         0.368511
 H        -2.885337         0.065007        -0.378452
 H        -2.391440         0.054775         1.358051
 H        -2.751785         2.006595        -1.699785
 H        -1.687662         3.403052        -1.677480
 H        -0.876974         0.526236        -2.133227
 H         0.199812         1.684183        -1.568442
 H        -1.352786         3.215972         2.857471
 H        -2.010879         1.397918         2.784483
 H         0.128984         2.677549         0.787574
