19
Iteration:  1960charge 0 multiplicity 1
 O         0.290386        -0.234112         0.384647
 C        -0.656919         0.708971         0.151651
 C        -2.184944         0.424655         0.287581
 C        -2.087446         2.076762         0.314218
 C        -1.868804         2.380774        -1.142334
 C        -0.693263         1.363915        -1.249469
 O        -2.756528         2.858137         1.414721
 C        -1.610333         2.520927         2.219927
 C        -0.714217         2.075405         0.964496
 H        -0.030408        -0.709763         1.144918
 H        -2.508147        -0.045058        -0.612688
 H        -2.631121         0.088228         1.248436
 H        -2.811717         2.173435        -1.687665
 H        -1.544686         3.357872        -1.257432
 H        -0.887606         0.674649        -2.063325
 H         0.247082         1.837425        -1.347837
 H        -1.273846         3.251268         2.948927
 H        -1.913904         1.657749         2.725126
 H         0.028707         2.763903         0.695062
