19
Iteration:  2579
 O         0.297508        -0.207738         0.425003
 C        -0.675378         0.772977         0.216193
 C        -2.163673         0.503783         0.422266
 C        -2.089625         2.170099         0.310938
 C        -1.878634         2.363431        -1.229929
 C        -0.730314         1.252785        -1.250899
 O        -2.793407         2.831879         1.421406
 C        -1.546344         2.328755         2.237364
 C        -0.712856         2.193171         0.932433
 H         0.511313        -0.685381        -0.402472
 H        -2.676333         0.033053        -0.527890
 H        -2.668595         0.099081         1.364733
 H        -2.747602         2.059304        -1.890995
 H        -1.574275         3.419012        -1.394837
 H        -1.069192         0.505837        -1.945936
 H         0.139472         1.814508        -1.748551
 H        -1.068448         2.942572         3.058579
 H        -1.833516         1.323210         2.636345
 H        -0.093736         3.136375         0.798032
