19
Iteration:  3801charge 0 multiplicity 1
 O         0.183810        -0.275806         0.382745
 C        -0.662777         0.753549         0.122011
 C        -2.217063         0.575207         0.239319
 C        -2.149944         2.049221         0.263447
 C        -1.820608         2.510848        -1.047945
 C        -0.508389         1.569052        -1.190206
 O        -2.783948         2.735936         1.327875
 C        -1.619945         2.234975         2.268286
 C        -0.821813         1.989093         1.012013
 H         0.974864         0.019036         0.863551
 H        -2.804671         0.080119        -0.510659
 H        -2.468789         0.162843         1.225868
 H        -2.368677         2.139278        -1.971888
 H        -1.604475         3.521594        -1.055995
 H        -0.475512         0.938014        -2.158138
 H         0.496527         2.041949        -1.007261
 H        -1.152652         3.119491         2.832184
 H        -1.986830         1.399773         2.855432
 H         0.008192         2.673717         0.689008
