19
Iteration:  2393
 O         0.240685        -0.373339         0.178528
 C        -0.579331         0.711044         0.247292
 C        -2.129988         0.574040         0.410336
 C        -2.181798         2.114881         0.353308
 C        -1.869718         2.390046        -1.150102
 C        -0.692922         1.357873        -1.231577
 O        -2.811276         2.770545         1.352490
 C        -1.685351         2.520244         2.304043
 C        -0.681065         2.122191         0.980256
 H         1.001089        -0.126094         0.743489
 H        -2.378765        -0.030008        -0.449451
 H        -2.579681         0.231735         1.387600
 H        -2.689597         2.107460        -1.851283
 H        -1.424355         3.318010        -1.456182
 H        -0.901935         0.533678        -1.949499
 H         0.251102         1.915696        -1.421725
 H        -1.154166         3.307552         2.771618
 H        -1.912706         1.697295         2.998474
 H         0.171927         2.847885         0.901105
