19
Iteration:  2454
 O         0.342030        -0.212674         0.394088
 C        -0.638217         0.757109         0.170740
 C        -2.216107         0.517227         0.317152
 C        -2.093365         2.115401         0.320491
 C        -1.939226         2.386085        -1.100037
 C        -0.707860         1.318771        -1.271284
 O        -2.772617         2.861393         1.408870
 C        -1.536910         2.363058         2.217200
 C        -0.721087         2.129185         0.929349
 H         0.160666        -1.021643         0.887246
 H        -2.658874         0.029862        -0.588302
 H        -2.622114         0.130367         1.245051
 H        -2.812147         2.156331        -1.733802
 H        -1.459166         3.339167        -1.411843
 H        -0.918922         0.397787        -1.867184
 H         0.124577         1.803047        -1.723090
 H        -1.220437         3.033597         3.047134
 H        -1.917857         1.366245         2.553634
 H        -0.126676         3.000819         0.880328
