19
Iteration:  2047charge 0 multiplicity 1
 O         0.313813        -0.327509         0.416424
 C        -0.677763         0.699555         0.191027
 C        -2.242856         0.455720         0.342547
 C        -2.167987         2.075382         0.276421
 C        -1.834857         2.466740        -1.201798
 C        -0.615097         1.413039        -1.321834
 O        -2.781694         2.733192         1.464319
 C        -1.542412         2.541672         2.210042
 C        -0.796660         2.132003         0.925128
 H         0.176479        -0.601252         1.332557
 H        -2.710428         0.050862        -0.556130
 H        -2.333984        -0.054053         1.330371
 H        -2.698598         2.384813        -1.903206
 H        -1.486296         3.443750        -1.048430
 H        -0.918969         0.703205        -2.081163
 H         0.400164         1.741406        -1.439428
 H        -1.214659         3.449348         2.755660
 H        -1.746483         1.830345         2.966622
 H        -0.029957         2.794229         0.628967
