19
Iteration:  1213
 O         0.418141        -0.176314         0.339567
 C        -0.631978         0.781046         0.227168
 C        -2.211507         0.497208         0.323431
 C        -2.137103         2.085948         0.310832
 C        -1.789206         2.475147        -1.168249
 C        -0.666539         1.323686        -1.248772
 O        -2.760755         2.807800         1.318322
 C        -1.690734         2.388321         2.239186
 C        -0.840439         2.013060         1.053369
 H         0.031245        -0.775797         0.991123
 H        -2.510187        -0.193236        -0.535055
 H        -2.611902         0.066346         1.284752
 H        -2.685585         2.333813        -1.840626
 H        -1.480255         3.496218        -1.315290
 H        -1.137947         0.465923        -1.867693
 H         0.320423         1.634673        -1.615140
 H        -1.140917         3.181550         2.869421
 H        -2.110272         1.677795         2.870697
 H        -0.154800         2.889024         0.922361
