19
Iteration:   841charge 0 multiplicity 1
 O         0.427355        -0.179920         0.342315
 C        -0.598276         0.791452         0.266738
 C        -2.120852         0.477831         0.408454
 C        -2.190668         2.032768         0.240988
 C        -1.844600         2.386861        -1.174431
 C        -0.728168         1.315259        -1.240483
 O        -2.780689         2.914601         1.367800
 C        -1.680269         2.378772         2.207846
 C        -0.805478         2.081410         1.005855
 H         0.010494        -0.863612         0.935704
 H        -2.562253        -0.116398        -0.412280
 H        -2.543273         0.038621         1.347007
 H        -2.567689         2.238946        -2.063005
 H        -1.387383         3.372130        -1.268521
 H        -1.068585         0.437529        -1.853370
 H         0.231142         1.496883        -1.657686
 H        -1.234101         3.254067         2.765771
 H        -1.964584         1.469167         2.790364
 H        -0.214223         3.003267         0.613688
