19
Iteration:  3175charge 0 multiplicity 1
 O         0.145283        -0.339234         0.329210
 C        -0.618354         0.749906         0.092069
 C        -2.147838         0.622486         0.315023
 C        -2.103622         2.209946         0.356639
 C        -1.775983         2.408566        -1.194190
 C        -0.530499         1.492815        -1.260527
 O        -2.876598         2.673862         1.379842
 C        -1.643327         2.320707         2.344943
 C        -0.774948         2.104936         1.114521
 H         0.831213        -0.384385        -0.356930
 H        -2.707086        -0.089091        -0.425549
 H        -2.352584         0.172730         1.257281
 H        -2.522389         2.225298        -1.868527
 H        -1.449803         3.420732        -1.592937
 H        -0.498842         0.646658        -1.963317
 H         0.475767         1.898614        -1.358560
 H        -1.582466         3.138530         3.028653
 H        -1.871033         1.408672         2.961846
 H        -0.076921         2.940259         0.894934
