19
Iteration:  2683
 O         0.241863        -0.294371         0.440879
 C        -0.632523         0.736819         0.104665
 C        -2.104671         0.593212         0.420924
 C        -2.052608         2.155060         0.337117
 C        -1.984331         2.356562        -1.258404
 C        -0.615156         1.441258        -1.358588
 O        -2.754092         2.716853         1.434695
 C        -1.614099         2.433344         2.256082
 C        -0.709712         2.080418         0.968096
 H        -0.260501        -1.123058         0.468586
 H        -2.767342         0.083692        -0.241222
 H        -2.131749         0.339168         1.523389
 H        -2.986435         2.126421        -1.556611
 H        -1.873937         3.431515        -1.389182
 H        -0.698805         0.565951        -2.110260
 H         0.268901         2.020640        -1.506444
 H        -1.446902         3.320319         2.817026
 H        -1.767491         1.589597         2.959703
 H        -0.155107         2.972045         0.526633
