19
Iteration:  1207charge 0 multiplicity 1
 O         0.423577        -0.202080         0.342678
 C        -0.648819         0.747717         0.239121
 C        -2.183686         0.489709         0.280051
 C        -2.137478         2.069933         0.278696
 C        -1.830713         2.471509        -1.127108
 C        -0.664912         1.313175        -1.234956
 O        -2.823541         2.846805         1.298211
 C        -1.656988         2.409261         2.292765
 C        -0.792463         2.010262         1.042527
 H        -0.074645        -0.828704         0.914320
 H        -2.282273        -0.091701        -0.605833
 H        -2.554952         0.128824         1.213563
 H        -2.669985         2.330242        -1.767366
 H        -1.423408         3.523273        -1.237767
 H        -1.024953         0.553254        -1.838894
 H         0.257925         1.771514        -1.711126
 H        -1.175196         3.253038         2.761748
 H        -2.066685         1.646318         3.102452
 H        -0.180653         2.909852         0.796598
