19
Iteration:  3183
 O         0.158228        -0.320259         0.370224
 C        -0.639893         0.805339         0.142541
 C        -2.188689         0.608685         0.319179
 C        -2.103152         2.145455         0.283655
 C        -1.760749         2.465856        -1.251234
 C        -0.475094         1.513297        -1.249675
 O        -2.847472         2.666983         1.452087
 C        -1.700141         2.256708         2.304642
 C        -0.762219         2.079347         1.051464
 H         0.701265        -0.614440        -0.365028
 H        -2.844986        -0.069593        -0.270954
 H        -2.251099         0.403338         1.350227
 H        -2.629277         2.063399        -1.881814
 H        -1.621934         3.539728        -1.434364
 H        -0.670153         0.780586        -2.081351
 H         0.518805         1.896444        -1.378675
 H        -1.300306         3.165817         2.780503
 H        -1.861405         1.583159         3.090812
 H        -0.041444         2.850785         0.970520
