19
Iteration:  1949
 O         0.271796        -0.270264         0.460011
 C        -0.671355         0.761846         0.158014
 C        -2.234023         0.503964         0.312945
 C        -2.108985         2.066865         0.281558
 C        -1.894379         2.446430        -1.129297
 C        -0.672453         1.401661        -1.302174
 O        -2.732062         2.722969         1.345907
 C        -1.549877         2.454921         2.253214
 C        -0.739156         2.079254         0.962296
 H         0.033687        -0.565327         1.365031
 H        -2.677587        -0.076128        -0.470464
 H        -2.460161        -0.003993         1.270939
 H        -2.685162         2.321992        -1.891375
 H        -1.553897         3.431254        -1.187636
 H        -0.798524         0.623371        -2.053311
 H         0.202589         1.943232        -1.568885
 H        -1.062380         3.413389         2.508169
 H        -1.750967         1.921569         3.093981
 H        -0.019464         2.811122         0.736441
