19
Iteration:  3384charge 0 multiplicity 1
 O         0.304765        -0.293583         0.357484
 C        -0.631423         0.710190         0.072223
 C        -2.131832         0.571316         0.265753
 C        -2.023310         2.216693         0.308730
 C        -1.739397         2.551560        -1.082385
 C        -0.664367         1.392307        -1.287829
 O        -2.855732         2.764421         1.376985
 C        -1.845217         2.233119         2.293785
 C        -0.756336         2.010335         1.142479
 H         1.111270        -0.123064        -0.148995
 H        -2.681865         0.119603        -0.512901
 H        -2.639754         0.158232         1.198112
 H        -2.630566         2.531211        -1.720270
 H        -1.234428         3.540123        -1.384324
 H        -0.916662         0.754780        -2.095443
 H         0.367868         1.787534        -1.467256
 H        -1.476245         3.025227         2.896145
 H        -2.324277         1.435199         2.866651
 H         0.158967         2.654385         1.205685
