19
Iteration:   431charge 0 multiplicity 1
 O         0.366312        -0.216954         0.442711
 C        -0.589085         0.714209         0.161694
 C        -2.195273         0.565355         0.424718
 C        -2.100868         2.067270         0.347928
 C        -2.032856         2.240592        -1.142865
 C        -0.679713         1.328306        -1.306786
 O        -2.741948         2.839984         1.385617
 C        -1.626121         2.623601         2.165366
 C        -0.671393         2.057160         0.951044
 H         0.014432        -1.099893         0.312443
 H        -2.747176         0.074349        -0.519569
 H        -2.512961         0.089748         1.384372
 H        -2.878301         1.566045        -1.584105
 H        -2.014790         3.238543        -1.501427
 H        -0.916142         0.539656        -2.039756
 H         0.215288         1.934795        -1.506872
 H        -1.231744         3.544558         2.670006
 H        -1.864746         1.907538         2.977435
 H         0.119824         2.732942         0.485567
