19
Iteration:  4139
 O         0.359666        -0.366019         0.246285
 C        -0.601355         0.697006         0.108827
 C        -2.179006         0.622354         0.306546
 C        -2.058228         2.138616         0.327582
 C        -1.833516         2.567558        -1.118368
 C        -0.549337         1.490690        -1.230441
 O        -2.805820         2.850716         1.316531
 C        -1.909427         2.224052         2.282389
 C        -0.764082         1.964390         1.121183
 H         0.383927        -0.469540         1.220923
 H        -2.664969        -0.085072        -0.366727
 H        -2.202247         0.097838         1.304690
 H        -2.774047         2.228126        -1.751521
 H        -1.586963         3.552676        -1.446427
 H        -0.553244         0.885039        -2.127911
 H         0.320597         2.012495        -1.354261
 H        -1.404961         3.023646         2.969565
 H        -2.342498         1.559117         2.940067
 H         0.123169         2.630764         1.161330
