19
Iteration:  4315
 O         0.206971        -0.329547         0.393854
 C        -0.598732         0.746639         0.120774
 C        -2.190751         0.500878         0.222546
 C        -2.173724         2.127448         0.178019
 C        -1.704800         2.555603        -1.183449
 C        -0.581373         1.484866        -1.255805
 O        -2.829622         2.733086         1.500389
 C        -1.689586         2.299556         2.307332
 C        -0.779926         2.042483         1.037055
 H         0.666755        -0.176492         1.241410
 H        -2.545790         0.012252        -0.744224
 H        -2.600283        -0.024688         1.072637
 H        -2.423919         2.613573        -2.059954
 H        -1.257141         3.558467        -1.011515
 H        -1.003187         0.815700        -1.989544
 H         0.386815         1.875912        -1.459020
 H        -1.297609         3.201277         2.958872
 H        -1.931832         1.384468         2.791226
 H         0.008601         2.833611         0.912779
