19
Iteration:  4203charge 0 multiplicity 1
 O         0.294069        -0.300883         0.464053
 C        -0.678692         0.778758         0.113465
 C        -2.204580         0.484251         0.220884
 C        -2.115602         2.130025         0.247737
 C        -1.692744         2.640238        -1.158148
 C        -0.647482         1.543642        -1.314113
 O        -2.854044         2.673653         1.373808
 C        -1.625653         2.290802         2.335711
 C        -0.757202         1.926163         1.036882
 H        -0.072844        -0.755420         1.244024
 H        -2.641255         0.020036        -0.660470
 H        -2.318149         0.104849         1.286639
 H        -2.571176         2.536288        -1.883121
 H        -1.432259         3.650102        -1.142096
 H        -0.810964         0.893047        -2.228273
 H         0.339224         2.020176        -1.420748
 H        -1.367453         3.332154         2.743717
 H        -2.052516         1.603285         3.074880
 H        -0.028560         2.744168         0.926441
