19
Iteration:  3255
 O         0.383201        -0.292294         0.229895
 C        -0.604387         0.738031         0.134749
 C        -2.213035         0.539796         0.335288
 C        -2.074760         2.223511         0.286236
 C        -1.724287         2.574864        -1.161027
 C        -0.642128         1.374512        -1.270389
 O        -2.878604         2.807124         1.392608
 C        -1.758467         2.212675         2.301301
 C        -0.804464         2.042158         1.086841
 H         0.140871        -0.667553         1.096858
 H        -2.777087         0.034998        -0.403074
 H        -2.532428         0.357830         1.438552
 H        -2.457115         2.331356        -1.882575
 H        -1.292187         3.549059        -1.203706
 H        -0.765898         0.615189        -2.032003
 H         0.406121         1.774441        -1.425651
 H        -1.444464         2.867438         3.130531
 H        -2.109686         1.276453         2.881508
 H         0.037438         2.807064         1.011364
