19
Iteration:  4395charge 0 multiplicity 1
 O         0.299010        -0.291955         0.207293
 C        -0.641292         0.723501         0.118146
 C        -2.189822         0.471429         0.264749
 C        -2.174901         2.069076         0.349700
 C        -1.772466         2.420455        -1.025995
 C        -0.529318         1.537961        -1.256645
 O        -2.764509         2.922774         1.321414
 C        -1.800294         2.360195         2.248288
 C        -0.760191         1.945483         1.158981
 H         0.433832        -0.554553         1.122872
 H        -2.859579         0.075568        -0.474742
 H        -2.280720        -0.087389         1.239620
 H        -2.644785         2.406188        -1.648820
 H        -1.334770         3.485895        -1.233510
 H        -0.552049         0.871185        -2.048272
 H         0.517995         1.792876        -1.260216
 H        -1.608744         3.032220         3.029800
 H        -2.218117         1.412979         2.742953
 H        -0.165002         2.784647         0.912390
