19
Iteration:  3703
 O         0.165390        -0.377551         0.312826
 C        -0.618664         0.763150         0.116976
 C        -2.190495         0.479640         0.179456
 C        -2.195780         1.986302         0.351851
 C        -1.721374         2.476862        -1.146570
 C        -0.453922         1.622066        -1.157701
 O        -2.857236         2.752823         1.428761
 C        -1.704533         2.430696         2.277399
 C        -0.800800         1.999966         1.124600
 H         1.028184        -0.130950        -0.078629
 H        -2.773528         0.161169        -0.633223
 H        -2.503212        -0.141953         0.973936
 H        -2.538240         2.189907        -1.958931
 H        -1.513280         3.524548        -1.151550
 H        -0.367087         0.972237        -2.099065
 H         0.414922         2.251601        -1.158846
 H        -1.184737         3.356807         2.587599
 H        -1.923973         1.656876         2.972748
 H         0.064620         2.688141         0.874119
