19
Iteration:  4986
 O         0.206799        -0.477016         0.357735
 C        -0.599543         0.739888         0.099567
 C        -2.055834         0.494751         0.272783
 C        -2.107368         2.169173         0.297549
 C        -1.765048         2.646906        -1.103712
 C        -0.497016         1.617446        -1.287888
 O        -2.905309         2.725010         1.295844
 C        -1.856480         2.266453         2.264680
 C        -0.780517         2.032143         1.166547
 H         1.059970        -0.183566         0.687471
 H        -2.589415        -0.036898        -0.567266
 H        -2.226428        -0.104035         1.227397
 H        -2.561922         2.309140        -1.784519
 H        -1.523439         3.720623        -1.166274
 H        -0.306034         0.918022        -2.104395
 H         0.455997         2.178028        -1.166249
 H        -1.591730         3.059441         2.916141
 H        -2.238131         1.533002         3.046716
 H         0.047447         2.675481         1.070884
