19
Iteration:   295charge 0 multiplicity 1
 O         0.309628        -0.283978         0.383212
 C        -0.637928         0.748303         0.199326
 C        -2.085065         0.487862         0.433388
 C        -2.107295         2.061940         0.295997
 C        -2.019021         2.276659        -1.241091
 C        -0.684422         1.423287        -1.272071
 O        -2.800285         2.733699         1.394149
 C        -1.513217         2.660882         2.262231
 C        -0.751108         2.082924         0.957789
 H        -0.101729        -1.176157         0.347980
 H        -2.584145        -0.154589        -0.237992
 H        -2.372464         0.346101         1.502744
 H        -2.771005         1.801836        -1.827494
 H        -1.759400         3.345707        -1.610403
 H        -0.792263         0.643436        -2.028188
 H         0.239053         2.043194        -1.371495
 H        -1.164314         3.685171         2.401483
 H        -1.743573         2.172411         3.272752
 H        -0.099605         2.839988         0.626965
