19
Iteration:  1895charge 0 multiplicity 1
 O         0.242415        -0.287894         0.315192
 C        -0.626026         0.797367         0.227902
 C        -2.193271         0.561435         0.327324
 C        -2.121527         2.049685         0.267551
 C        -1.834606         2.356350        -1.171143
 C        -0.637067         1.342527        -1.246173
 O        -2.794791         2.885475         1.372301
 C        -1.617018         2.443848         2.266710
 C        -0.751798         2.036051         1.041612
 H         0.946121        -0.086606         0.989228
 H        -2.565484        -0.031262        -0.470478
 H        -2.490191         0.159395         1.328412
 H        -2.592781         1.964878        -1.901977
 H        -1.641316         3.358399        -1.311580
 H        -1.063790         0.499773        -1.794972
 H         0.267443         1.673235        -1.698342
 H        -1.182606         3.155127         2.924522
 H        -1.989467         1.567786         2.703797
 H        -0.057203         2.781496         0.802257
