19
Iteration:  3555
 O         0.119452        -0.436977         0.272800
 C        -0.568414         0.796568         0.107770
 C        -2.039894         0.569089         0.329067
 C        -2.091696         2.179769         0.306297
 C        -1.758764         2.517063        -1.140468
 C        -0.496298         1.545627        -1.244464
 O        -2.908198         2.682660         1.388668
 C        -1.823085         2.323937         2.340543
 C        -0.753924         2.080422         1.097367
 H         0.950489        -0.322916        -0.228197
 H        -2.584052        -0.046948        -0.507739
 H        -2.223606         0.122304         1.381365
 H        -2.458474         2.124272        -1.841692
 H        -1.454283         3.494138        -1.558286
 H        -0.624465         0.737027        -2.018719
 H         0.549002         2.022538        -1.360950
 H        -1.586735         3.129903         3.092506
 H        -2.173044         1.458107         2.993115
 H         0.017929         2.842747         1.051514
