19
Iteration:  4829
 O         0.276633        -0.431169         0.235900
 C        -0.670470         0.767132         0.196666
 C        -2.179264         0.567487         0.207483
 C        -2.139735         2.042489         0.279603
 C        -1.800447         2.523964        -1.114377
 C        -0.503830         1.675497        -1.130985
 O        -2.857125         2.754838         1.253791
 C        -1.777830         2.328598         2.299188
 C        -0.715224         1.963526         1.167917
 H         0.652132        -0.453201         1.148382
 H        -2.648238         0.045700        -0.630428
 H        -2.448592        -0.084556         1.097971
 H        -2.643841         2.183438        -1.734152
 H        -1.497031         3.596118        -1.185181
 H        -0.294134         1.067940        -1.935127
 H         0.494516         2.260430        -1.131559
 H        -1.549255         3.362935         2.815614
 H        -2.185058         1.472989         2.869017
 H         0.261913         2.584813         1.111646
