19
Iteration:  4466charge 0 multiplicity 1
 O         0.203473        -0.313049         0.504331
 C        -0.592985         0.771567         0.077045
 C        -2.124533         0.522411         0.196777
 C        -2.137703         2.068776         0.271251
 C        -1.812800         2.597685        -1.046421
 C        -0.581412         1.519576        -1.279153
 O        -2.782052         2.736762         1.406777
 C        -1.659372         2.288428         2.220629
 C        -0.796145         2.003044         0.994737
 H        -0.238300        -0.769064         1.227345
 H        -2.539476        -0.050591        -0.664031
 H        -2.310771         0.011288         1.121749
 H        -2.520544         2.459415        -1.962519
 H        -1.491390         3.600231        -1.141722
 H        -0.550179         0.793623        -2.229032
 H         0.249359         2.207277        -1.513034
 H        -1.344947         3.024732         3.058805
 H        -1.940853         1.416233         2.761108
 H        -0.176194         2.913743         0.686299
