19
Iteration:  3761
 O         0.232252        -0.254423         0.389156
 C        -0.615612         0.766889         0.151748
 C        -2.082225         0.586178         0.191673
 C        -2.085695         2.148688         0.296572
 C        -1.722319         2.532343        -1.154891
 C        -0.627907         1.373053        -1.329449
 O        -2.777906         2.812014         1.368554
 C        -1.830710         2.155189         2.399718
 C        -0.803636         2.012832         1.088465
 H         1.085621         0.109746         0.081673
 H        -2.510216         0.158444        -0.700911
 H        -2.319974         0.200504         1.201255
 H        -2.706878         2.355808        -1.689589
 H        -1.422083         3.642906        -1.252470
 H        -1.108126         0.549883        -1.965898
 H         0.236088         1.764469        -1.818861
 H        -1.513876         2.869028         3.146065
 H        -2.324555         1.356356         2.984878
 H        -0.049362         2.813936         1.303639
