19
Iteration:  4559
 O         0.309618        -0.289781         0.291586
 C        -0.645828         0.707060         0.134206
 C        -2.176588         0.502676         0.364242
 C        -2.152078         2.030704         0.346111
 C        -1.693620         2.594047        -1.008133
 C        -0.567854         1.542736        -1.258346
 O        -2.850410         2.733176         1.262395
 C        -1.734942         2.370314         2.221397
 C        -0.767283         2.033702         1.070274
 H        -0.206354        -1.080091         0.569413
 H        -2.680186         0.022581        -0.515091
 H        -2.259584        -0.058735         1.333409
 H        -2.521736         2.434188        -1.755872
 H        -1.514049         3.738910        -1.013548
 H        -0.724777         0.827704        -2.048049
 H         0.451605         2.027774        -1.519822
 H        -1.468757         3.069568         2.984466
 H        -2.157051         1.451603         2.802060
 H         0.013903         2.744751         0.994651
