19
Iteration:  2240charge 0 multiplicity 1
 O         0.381538        -0.167709         0.322625
 C        -0.682366         0.715278         0.144003
 C        -2.170754         0.492383         0.304227
 C        -2.146761         2.111948         0.305644
 C        -1.839229         2.326042        -1.158067
 C        -0.673755         1.308831        -1.274388
 O        -2.709150         2.912179         1.421888
 C        -1.676251         2.495938         2.253963
 C        -0.805955         2.004982         1.079125
 H         0.149980        -1.101489         0.313744
 H        -2.877895         0.037045        -0.336026
 H        -2.406165         0.101283         1.276692
 H        -2.753204         2.100782        -1.720335
 H        -1.559015         3.315526        -1.378315
 H        -0.782257         0.455510        -1.990026
 H         0.300463         1.710001        -1.510805
 H        -1.229619         3.136756         2.929024
 H        -1.983830         1.582832         2.800227
 H        -0.248330         2.943620         0.987946
