19
Iteration:  1226
 O         0.379853        -0.136147         0.341502
 C        -0.682465         0.731020         0.186505
 C        -2.208816         0.496984         0.402430
 C        -2.122333         2.116710         0.239456
 C        -1.757287         2.418013        -1.198688
 C        -0.686757         1.340226        -1.275283
 O        -2.774357         2.830397         1.386131
 C        -1.758523         2.300130         2.238773
 C        -0.752505         2.050405         1.015862
 H         0.490760        -0.616274         1.201076
 H        -3.030220         0.200208        -0.276660
 H        -2.384861         0.254681         1.473273
 H        -2.468959         2.238297        -1.994835
 H        -1.297317         3.424099        -1.258364
 H        -0.884401         0.536454        -2.004478
 H         0.376294         1.736188        -1.539274
 H        -1.593136         3.172637         2.985106
 H        -1.970323         1.358796         2.776453
 H         0.119688         2.796763         0.819360
