19
Iteration:  1283charge 0 multiplicity 1
 O         0.175994        -0.345877         0.491796
 C        -0.634090         0.776100         0.180234
 C        -2.081108         0.375148         0.252567
 C        -2.119832         2.092796         0.292895
 C        -1.891473         2.478648        -1.103791
 C        -0.592303         1.468291        -1.299008
 O        -2.823443         2.744274         1.307371
 C        -1.608043         2.474234         2.248001
 C        -0.771748         2.061335         1.034322
 H         1.112383        -0.295108         0.283680
 H        -2.648226         0.026326        -0.622072
 H        -2.442056        -0.065132         1.169924
 H        -2.684324         2.209528        -1.763339
 H        -1.639582         3.529153        -1.372238
 H        -0.557599         0.831568        -2.128694
 H         0.278831         2.209594        -1.194651
 H        -1.341616         3.399614         2.726544
 H        -1.829130         1.748789         3.124515
 H        -0.094477         2.949846         0.868213
