19
Iteration:  1536charge 0 multiplicity 1
 O         0.246698        -0.314359         0.573921
 C        -0.618363         0.789332         0.198550
 C        -2.161128         0.514511         0.353811
 C        -2.148490         2.026804         0.234920
 C        -1.781840         2.525256        -1.205396
 C        -0.595688         1.419380        -1.315998
 O        -2.799302         2.718629         1.405941
 C        -1.622594         2.432162         2.246683
 C        -0.832272         2.106929         0.926289
 H         0.600155        -0.642739        -0.279048
 H        -2.596988        -0.152935        -0.381921
 H        -2.378386         0.242213         1.383312
 H        -2.709141         2.316432        -1.849241
 H        -1.530782         3.550850        -1.304390
 H        -1.057104         0.631018        -1.928160
 H         0.247309         1.826989        -1.819433
 H        -1.385489         3.195973         2.862385
 H        -1.616135         1.516956         2.941651
 H        -0.188580         2.919705         0.580863
