19
Iteration:  1879
 O         0.346827        -0.328093         0.319029
 C        -0.653216         0.672812         0.168327
 C        -2.132145         0.472749         0.414539
 C        -2.113418         2.204885         0.364872
 C        -1.905893         2.367034        -1.171113
 C        -0.712672         1.362091        -1.263790
 O        -2.724620         2.980954         1.300423
 C        -1.773809         2.360698         2.205417
 C        -0.719536         2.010548         1.065589
 H         1.044258        -0.002623         0.926709
 H        -2.810831         0.023413        -0.369419
 H        -2.460866         0.038528         1.342636
 H        -2.862677         2.220181        -1.661264
 H        -1.599844         3.416633        -1.579992
 H        -0.655407         0.609104        -2.068920
 H         0.287407         1.908740        -1.386664
 H        -1.344360         3.288541         2.656738
 H        -2.152849         1.519192         2.922747
 H         0.147931         2.768950         1.033524
