19
Iteration:  1255charge 0 multiplicity 1
 O         0.310064        -0.290086         0.392424
 C        -0.619559         0.780100         0.224826
 C        -2.191146         0.528886         0.293100
 C        -2.134619         2.139455         0.259249
 C        -1.841527         2.412520        -1.163280
 C        -0.605281         1.395214        -1.257917
 O        -2.794402         2.814316         1.374292
 C        -1.676941         2.311105         2.224173
 C        -0.790921         2.052569         1.026787
 H         1.015960        -0.067150         1.018801
 H        -2.828004         0.291668        -0.560914
 H        -2.474578         0.205057         1.310765
 H        -2.635294         1.978809        -1.859940
 H        -1.622824         3.407478        -1.499472
 H        -0.885670         0.526189        -1.965102
 H         0.280778         1.917561        -1.515925
 H        -1.350070         3.195061         2.811708
 H        -1.924590         1.526517         2.908535
 H        -0.087411         2.837072         0.938041
