19
Iteration:  2531charge 0 multiplicity 1
 O         0.333814        -0.289829         0.409050
 C        -0.723754         0.707851         0.228628
 C        -2.149515         0.419211         0.325308
 C        -2.204655         2.016498         0.335680
 C        -1.952474         2.383626        -1.104589
 C        -0.647007         1.497442        -1.326411
 O        -2.742318         2.832346         1.390119
 C        -1.551620         2.596010         2.214031
 C        -0.716763         2.019365         0.963373
 H        -0.007713        -1.109232         0.019480
 H        -2.554716        -0.187015        -0.487859
 H        -2.419986         0.083353         1.366187
 H        -2.793399         2.051028        -1.718249
 H        -1.693954         3.455889        -1.244817
 H        -0.640003         0.842444        -2.251874
 H         0.241727         2.054830        -1.250830
 H        -1.227391         3.552291         2.606119
 H        -1.572742         1.779289         3.001925
 H        -0.024909         2.764940         0.684731
