19
Iteration:  4366charge 0 multiplicity 1
 O         0.282956        -0.368098         0.383532
 C        -0.625184         0.749415         0.206814
 C        -2.178717         0.528635         0.223319
 C        -2.160799         2.158980         0.252526
 C        -1.848275         2.558909        -1.170317
 C        -0.596963         1.570070        -1.258446
 O        -2.756366         2.814796         1.364012
 C        -1.692265         2.220826         2.284666
 C        -0.777178         1.952601         1.096630
 H         0.836162        -0.408029         1.187179
 H        -2.603510         0.044786        -0.669889
 H        -2.610665         0.129049         1.136835
 H        -2.740520         2.404050        -1.824661
 H        -1.461422         3.527367        -1.498809
 H        -0.695144         0.745315        -2.104094
 H         0.435076         1.969638        -1.312996
 H        -1.410307         3.053327         2.960592
 H        -2.116474         1.336157         2.766915
 H        -0.087335         2.822294         0.913086
