19
Iteration:  4847charge 0 multiplicity 1
 O         0.185895        -0.288135         0.298585
 C        -0.693875         0.710198         0.144668
 C        -2.208354         0.544384         0.193700
 C        -2.110207         2.175448         0.278970
 C        -1.738295         2.480096        -1.157314
 C        -0.406012         1.605867        -1.133700
 O        -2.819505         2.673873         1.410266
 C        -1.727666         2.277218         2.224318
 C        -0.834406         1.972268         1.098316
 H         0.907006        -0.355353         0.951111
 H        -2.714983         0.043988        -0.630869
 H        -2.575361         0.133043         1.180637
 H        -2.326315         1.987474        -1.934863
 H        -1.526510         3.534156        -1.334575
 H        -0.171670         1.070570        -2.152164
 H         0.431910         2.231731        -0.998240
 H        -1.527233         3.152560         2.855859
 H        -2.112578         1.592358         2.965624
 H        -0.208818         2.890715         1.101789
