19
Iteration:  4702
 O         0.261712        -0.333488         0.365913
 C        -0.643333         0.694534         0.193871
 C        -2.181352         0.590100         0.277068
 C        -2.113083         2.131958         0.282340
 C        -1.798072         2.509183        -1.228564
 C        -0.499898         1.524536        -1.168327
 O        -2.828421         2.731588         1.379380
 C        -1.787427         2.297323         2.278312
 C        -0.755571         2.022510         1.071424
 H         0.483408        -0.870002        -0.401317
 H        -2.668690         0.124986        -0.623750
 H        -2.303167         0.260165         1.256829
 H        -2.632235         2.335059        -1.933333
 H        -1.478490         3.577830        -1.228421
 H        -0.246838         0.936515        -2.087769
 H         0.295265         2.291405        -1.029915
 H        -1.476768         3.041752         2.938733
 H        -2.050100         1.538660         3.044291
 H        -0.094849         2.793085         0.809315
