19
Iteration:   898charge 0 multiplicity 1
 O         0.251194        -0.362847         0.348874
 C        -0.660220         0.729668         0.232343
 C        -2.223112         0.493452         0.329356
 C        -2.108824         2.069102         0.235892
 C        -1.984921         2.335247        -1.175428
 C        -0.533098         1.563300        -1.265537
 O        -2.820022         2.702573         1.371132
 C        -1.617455         2.578247         2.205323
 C        -0.693449         2.085266         1.125921
 H         1.078259        -0.074824         0.744274
 H        -2.629315        -0.107479        -0.445921
 H        -2.494986         0.183668         1.343028
 H        -2.654960         1.625026        -1.833243
 H        -1.857047         3.302554        -1.580548
 H        -0.588139         0.666573        -1.908016
 H         0.480425         2.045169        -1.421405
 H        -1.480505         3.678797         2.578223
 H        -1.807355         2.034117         3.107798
 H         0.319339         2.599827         0.779372
