19
Iteration:  4282charge 0 multiplicity 1
 O         0.286228        -0.288947         0.256585
 C        -0.653037         0.736662         0.105608
 C        -2.250489         0.540366         0.324685
 C        -2.062875         2.087579         0.299108
 C        -1.797073         2.467572        -1.119964
 C        -0.549630         1.549915        -1.172598
 O        -2.800579         2.835865         1.265652
 C        -1.738259         2.279991         2.262799
 C        -0.747524         1.928000         1.157060
 H         0.587819        -0.491364         1.146541
 H        -2.766915         0.142019        -0.604207
 H        -2.616570         0.019453         1.194665
 H        -2.663740         2.289380        -1.861892
 H        -1.431547         3.514949        -1.111116
 H        -0.723849         0.926168        -2.059830
 H         0.370075         2.020548        -1.379809
 H        -1.440786         3.134613         2.999378
 H        -2.195792         1.623105         2.957215
 H         0.117850         2.633933         1.210109
