19
Iteration:  3042charge 0 multiplicity 1
 O         0.303006        -0.309676         0.382926
 C        -0.593457         0.739124         0.175075
 C        -2.166388         0.463301         0.403581
 C        -2.160796         2.077090         0.305250
 C        -1.875088         2.492991        -1.091425
 C        -0.617017         1.553521        -1.276662
 O        -2.807506         2.803261         1.346845
 C        -1.633207         2.381683         2.200937
 C        -0.770070         1.967787         0.986048
 H         0.013233        -1.049627        -0.167424
 H        -2.619309        -0.127046        -0.417822
 H        -2.387227         0.032969         1.408486
 H        -2.724271         2.431419        -1.777112
 H        -1.557474         3.536679        -1.212796
 H        -0.421577         0.982962        -2.210353
 H         0.237141         2.185166        -1.178693
 H        -1.213366         3.206092         2.823543
 H        -2.024451         1.672694         2.946259
 H        -0.018318         2.770261         0.816522
