19
Iteration:  4380charge 0 multiplicity 1
 O         0.258981        -0.352148         0.294498
 C        -0.620460         0.732309         0.122014
 C        -2.115901         0.447799         0.237605
 C        -2.087261         2.075500         0.326671
 C        -1.828941         2.538703        -1.102698
 C        -0.568706         1.499021        -1.203974
 O        -2.728642         2.935811         1.342995
 C        -1.818084         2.271321         2.297185
 C        -0.824210         1.981910         1.043552
 H         0.514367        -0.199790         1.223285
 H        -2.521843        -0.086898        -0.671436
 H        -2.422692        -0.056908         1.140800
 H        -2.514579         2.177559        -1.884417
 H        -1.669116         3.530538        -0.961928
 H        -0.734848         0.859763        -2.117834
 H         0.202860         2.252629        -1.365939
 H        -1.261261         3.010853         3.025156
 H        -2.299303         1.500726         2.870843
 H         0.004295         2.759690         1.027706
