19
Iteration:  3805charge 0 multiplicity 1
 O         0.159617        -0.273502         0.376554
 C        -0.661633         0.786243         0.084748
 C        -2.217291         0.529960         0.239289
 C        -2.131138         2.066585         0.309338
 C        -1.811507         2.484690        -1.088324
 C        -0.503858         1.567421        -1.198023
 O        -2.778373         2.715106         1.321910
 C        -1.623998         2.273277         2.283809
 C        -0.832124         1.967082         1.033449
 H         0.940543        -0.049675         0.909604
 H        -2.774710         0.088011        -0.595097
 H        -2.412486         0.222147         1.284775
 H        -2.427619         2.216646        -2.001450
 H        -1.473795         3.610927        -1.039373
 H        -0.415857         0.983952        -2.156627
 H         0.432659         2.074194        -0.987325
 H        -1.187861         3.082703         2.805904
 H        -1.888588         1.469820         3.023047
 H        -0.105086         2.770834         0.743086
