19
Iteration:  4886
 O         0.232957        -0.324584         0.506643
 C        -0.593819         0.817621         0.210250
 C        -2.167467         0.561451         0.148854
 C        -2.104839         2.174932         0.263996
 C        -1.700094         2.634072        -1.074868
 C        -0.632879         1.464768        -1.316473
 O        -2.798848         2.674004         1.337825
 C        -1.825367         2.138457         2.222117
 C        -0.780032         2.064064         1.104633
 H         1.147245         0.006368         0.584310
 H        -2.499009        -0.006039        -0.775747
 H        -2.512635         0.072993         1.014851
 H        -2.589794         2.649757        -1.718383
 H        -1.198286         3.605420        -1.231386
 H        -1.033083         0.835626        -2.059080
 H         0.388219         1.840002        -1.576397
 H        -1.509228         2.843487         2.970093
 H        -2.060144         1.136020         2.696003
 H        -0.011763         2.803027         1.025133
