19
Iteration:  1587charge 0 multiplicity 1
 O         0.449444        -0.324892         0.385465
 C        -0.658514         0.679668         0.168021
 C        -2.242460         0.539939         0.397371
 C        -2.135195         2.091780         0.264580
 C        -1.922950         2.396231        -1.208882
 C        -0.619619         1.406574        -1.187442
 O        -2.780836         2.820664         1.302399
 C        -1.741837         2.476025         2.281998
 C        -0.721309         2.047580         1.066290
 H         0.652294        -0.667605        -0.529173
 H        -2.792842         0.177455        -0.464516
 H        -2.750874         0.198132         1.338380
 H        -2.608857         2.103335        -1.934150
 H        -1.725566         3.505992        -1.428890
 H        -0.819865         0.821464        -2.070056
 H         0.383539         1.936278        -1.316218
 H        -1.168194         3.312302         2.905136
 H        -2.077457         1.898962         3.117624
 H         0.135771         2.769812         1.134719
