19
Iteration:   390
 O         0.320088        -0.127265         0.645547
 C        -0.712705         0.742911         0.194800
 C        -2.218807         0.480454         0.518140
 C        -2.184468         2.081270         0.238053
 C        -1.919899         2.406088        -1.227066
 C        -0.756800         1.273355        -1.312913
 O        -2.706549         2.740542         1.468019
 C        -1.508286         2.429522         2.085525
 C        -0.693958         2.142810         0.758909
 H         0.691522        -0.600616        -0.134747
 H        -2.697062        -0.309983        -0.117022
 H        -2.394687         0.421527         1.595913
 H        -2.738228         2.222019        -1.916593
 H        -1.533039         3.433621        -1.311047
 H        -1.147273         0.416750        -1.937210
 H         0.151053         1.692661        -1.697730
 H        -1.127408         3.302474         2.533165
 H        -1.593803         1.545349         2.769584
 H        -0.068575         3.036923         0.484912
