19
Iteration:  3734charge 0 multiplicity 1
 O         0.279237        -0.345248         0.307726
 C        -0.641659         0.706433         0.175164
 C        -2.170323         0.534813         0.331481
 C        -2.102610         2.122398         0.307781
 C        -1.700543         2.569907        -1.104185
 C        -0.621846         1.459725        -1.216402
 O        -2.889618         2.751753         1.321297
 C        -1.763954         2.282303         2.251292
 C        -0.738963         2.056264         1.083909
 H         0.998632        -0.166841        -0.336691
 H        -2.750601         0.088639        -0.515046
 H        -2.482239         0.139009         1.288196
 H        -2.577928         2.543043        -1.797686
 H        -1.237325         3.523434        -1.037990
 H        -0.681795         0.809328        -2.105421
 H         0.301774         2.120352        -1.233588
 H        -1.488104         3.112807         2.973673
 H        -2.109988         1.379060         2.782867
 H         0.085528         2.803587         1.107271
