19
Iteration:  2495charge 0 multiplicity 1
 O         0.388813        -0.205402         0.306273
 C        -0.693602         0.694325         0.205422
 C        -2.157053         0.518823         0.434967
 C        -2.121663         2.169863         0.318850
 C        -1.823139         2.409222        -1.150285
 C        -0.742806         1.284370        -1.360057
 O        -2.789751         2.789752         1.378427
 C        -1.645485         2.470674         2.275556
 C        -0.723737         2.073756         1.038068
 H         0.029428        -1.107665         0.336632
 H        -2.626040        -0.203863        -0.174914
 H        -2.382935         0.210777         1.396989
 H        -2.689889         2.342771        -1.780354
 H        -1.540705         3.436652        -1.351239
 H        -1.012877         0.566902        -2.126548
 H         0.211563         1.776287        -1.703693
 H        -1.333763         3.345059         2.920458
 H        -1.968062         1.698371         2.980313
 H         0.043648         2.784571         0.536778
