19
Iteration:  4937
 O         0.271824        -0.322607         0.259826
 C        -0.603754         0.694357         0.214371
 C        -2.154653         0.539247         0.170843
 C        -2.182391         2.112617         0.263455
 C        -1.725910         2.493573        -1.184927
 C        -0.443128         1.502932        -1.066331
 O        -2.888759         2.783367         1.412566
 C        -1.804800         2.301881         2.321499
 C        -0.868674         2.042926         1.095153
 H         1.083900        -0.207922        -0.289994
 H        -2.588282         0.127901        -0.708747
 H        -2.626964         0.041988         1.017997
 H        -2.341776         2.392886        -2.088452
 H        -1.240813         3.477993        -1.135167
 H        -0.485383         0.837186        -1.991105
 H         0.560521         2.017425        -1.026783
 H        -1.465641         3.024642         3.140468
 H        -2.106278         1.444113         2.908508
 H        -0.109980         2.862994         0.788888
