19
Iteration:  1203
 O         0.405734        -0.228980         0.357038
 C        -0.643978         0.726290         0.229295
 C        -2.131391         0.483691         0.249565
 C        -2.135986         2.069523         0.253398
 C        -1.853503         2.458670        -1.086570
 C        -0.677225         1.340779        -1.222760
 O        -2.870408         2.874102         1.298302
 C        -1.650970         2.410759         2.323683
 C        -0.756375         2.023490         1.036427
 H         0.053524        -0.989287         0.851730
 H        -2.416913        -0.055019        -0.721340
 H        -2.566462         0.094018         1.214115
 H        -2.679199         2.296981        -1.824237
 H        -1.399373         3.438549        -1.129848
 H        -0.908750         0.481272        -1.991690
 H         0.226069         1.823967        -1.688525
 H        -1.265545         3.457685         2.755627
 H        -1.930987         1.729288         3.107689
 H        -0.062085         2.892657         0.682463
