19
Iteration:  4522charge 0 multiplicity 1
 O         0.348241        -0.233739         0.159250
 C        -0.681583         0.702953         0.181100
 C        -2.204884         0.520779         0.264916
 C        -2.084890         2.229333         0.335602
 C        -1.703326         2.475609        -1.123916
 C        -0.545970         1.383171        -1.276494
 O        -2.871621         2.845421         1.378615
 C        -1.809169         2.284031         2.330701
 C        -0.802981         1.991478         1.188811
 H         0.732723        -0.627697         0.975531
 H        -2.686484         0.149475        -0.631216
 H        -2.517579        -0.145906         1.119344
 H        -2.364477         2.152301        -1.938643
 H        -1.303698         3.439341        -1.296440
 H        -0.873795         0.593298        -2.010927
 H         0.427911         1.856039        -1.524859
 H        -1.544322         3.202915         2.950387
 H        -2.125337         1.447807         2.920263
 H         0.039085         2.749746         1.154974
