19
Iteration:  2951charge 0 multiplicity 1
 O         0.189979        -0.333580         0.469832
 C        -0.576400         0.801452         0.091530
 C        -2.180868         0.507596         0.285714
 C        -2.169534         2.052417         0.388439
 C        -1.863694         2.470343        -1.096051
 C        -0.630456         1.433835        -1.317833
 O        -2.830940         2.783058         1.431182
 C        -1.633713         2.405249         2.186322
 C        -0.663160         2.064230         0.959523
 H         1.134636        -0.134517         0.635252
 H        -2.582238        -0.079695        -0.530108
 H        -2.427708        -0.028732         1.224457
 H        -2.652503         2.296102        -1.907735
 H        -1.536663         3.501400        -1.295962
 H        -0.841715         0.672461        -2.055657
 H         0.296329         1.928925        -1.717121
 H        -1.310339         3.137461         2.953349
 H        -1.856508         1.508676         2.709022
 H         0.057046         2.829156         0.741598
