19
Iteration:   115
 O         0.509504        -0.044375         0.489787
 C        -0.704972         0.709789         0.192795
 C        -2.302067         0.564467         0.361898
 C        -2.170503         2.143678         0.298540
 C        -1.898700         2.299232        -1.264018
 C        -0.690639         1.267147        -1.296908
 O        -2.717111         2.852843         1.447258
 C        -1.632926         2.353411         2.238778
 C        -0.765659         2.032597         0.956665
 H         0.451890        -0.961606         0.197724
 H        -2.730743         0.130454        -0.584185
 H        -2.677803         0.235139         1.333013
 H        -2.777092         1.842265        -1.821939
 H        -1.736227         3.292791        -1.658778
 H        -0.961622         0.467758        -2.068188
 H         0.231269         1.795542        -1.662754
 H        -1.196783         3.223788         2.833507
 H        -2.011709         1.491169         2.883445
 H         0.144523         2.762551         0.851239
