19
Iteration:   216charge 0 multiplicity 1
 O         0.459812        -0.258540         0.307382
 C        -0.632755         0.765472         0.164654
 C        -2.178613         0.491252         0.400335
 C        -2.164000         2.083683         0.354444
 C        -1.990797         2.236536        -1.081301
 C        -0.732702         1.273054        -1.262147
 O        -2.696952         2.970246         1.265112
 C        -1.645747         2.467058         2.247771
 C        -0.800537         2.095981         0.999469
 H         0.959044        -0.041535         1.131359
 H        -2.695552        -0.035219        -0.418129
 H        -2.534612         0.068536         1.342045
 H        -2.884531         1.914053        -1.667635
 H        -1.762393         3.301587        -1.336886
 H        -0.902789         0.526333        -2.134635
 H         0.155684         1.827589        -1.504824
 H        -1.287305         3.269412         2.931571
 H        -2.085056         1.586879         2.823769
 H        -0.000093         2.889155         0.925557
