19
Iteration:  3229
 O         0.358328        -0.151962         0.446033
 C        -0.611556         0.732470         0.132670
 C        -2.221292         0.487499         0.174200
 C        -2.134991         2.080113         0.332968
 C        -1.800449         2.566804        -1.067502
 C        -0.646619         1.457377        -1.302941
 O        -2.710099         2.804836         1.361742
 C        -1.697411         2.311982         2.281490
 C        -0.840396         1.895089         1.061271
 H        -0.097915        -1.016523         0.498335
 H        -2.630833         0.255733        -0.871036
 H        -2.666413        -0.047970         0.970060
 H        -2.553361         2.316320        -1.842807
 H        -1.477958         3.689876        -1.034929
 H        -0.963589         0.673458        -2.021892
 H         0.341033         1.771740        -1.611306
 H        -1.296459         2.996606         3.003280
 H        -2.090526         1.526473         2.889958
 H        -0.075094         2.665294         0.892910
