19
Iteration:  4963
 O         0.141050        -0.383043         0.260912
 C        -0.613528         0.723827         0.213472
 C        -2.130176         0.551650         0.198305
 C        -2.056181         2.111349         0.285494
 C        -1.754442         2.431041        -1.118106
 C        -0.425017         1.722253        -1.137258
 O        -2.880699         2.681610         1.316029
 C        -1.848918         2.346092         2.275525
 C        -0.753370         1.983592         1.169823
 H         1.081061        -0.271992        -0.054783
 H        -2.731066         0.003863        -0.596311
 H        -2.487406         0.224592         1.161098
 H        -2.456532         2.034756        -1.843024
 H        -1.618402         3.523389        -1.191764
 H        -0.310236         1.005968        -1.912503
 H         0.511289         2.370997        -1.155384
 H        -1.513206         3.153957         2.856548
 H        -2.238235         1.685183         3.122566
 H        -0.013302         2.691087         0.872147
