19
Iteration:  2039charge 0 multiplicity 1
 O         0.311524        -0.349019         0.373525
 C        -0.648026         0.702967         0.250208
 C        -2.168327         0.548412         0.254630
 C        -2.193539         2.000421         0.298976
 C        -1.848212         2.440111        -1.161141
 C        -0.667421         1.385627        -1.275491
 O        -2.740799         2.799808         1.439480
 C        -1.607465         2.552604         2.216278
 C        -0.797285         2.076899         0.958326
 H         0.429033        -0.670595         1.267143
 H        -2.736548        -0.198450        -0.433384
 H        -2.372531        -0.013705         1.247217
 H        -2.627967         2.471053        -1.949642
 H        -1.506135         3.537114        -1.161876
 H        -0.861566         0.666642        -2.080818
 H         0.303419         1.894365        -1.576135
 H        -1.267379         3.495517         2.710777
 H        -1.727255         1.790311         3.008816
 H        -0.181325         2.972781         0.596013
