19
Iteration:  2885
 O         0.277250        -0.320177         0.221329
 C        -0.581036         0.786999         0.147131
 C        -2.096205         0.534222         0.414436
 C        -2.081286         2.075789         0.292228
 C        -1.813356         2.413702        -1.071190
 C        -0.647763         1.349771        -1.337701
 O        -2.795391         2.834844         1.363716
 C        -1.773444         2.453369         2.339469
 C        -0.762839         2.043663         0.997028
 H         0.444230        -0.540435         1.151373
 H        -2.699882        -0.117981        -0.285636
 H        -2.442490         0.280682         1.394578
 H        -2.793772         2.267985        -1.663455
 H        -1.480031         3.469290        -1.199933
 H        -0.720113         0.553863        -2.025702
 H         0.294725         1.954489        -1.591529
 H        -1.417646         3.188047         3.121529
 H        -2.212942         1.600885         2.819393
 H        -0.187264         2.864393         0.670696
