19
Iteration:   732charge 0 multiplicity 1
 O         0.384199        -0.291081         0.242772
 C        -0.686120         0.650447         0.232623
 C        -2.137413         0.463508         0.545484
 C        -2.011628         2.143626         0.259485
 C        -1.855912         2.410667        -1.136351
 C        -0.776692         1.354934        -1.245105
 O        -2.870169         2.797088         1.293063
 C        -1.736247         2.569907         2.146836
 C        -0.664235         2.049095         1.050501
 H         0.781015        -0.156416         1.123513
 H        -2.602946        -0.143201        -0.227421
 H        -2.449085         0.325411         1.567056
 H        -2.742698         1.902003        -1.592323
 H        -1.647997         3.378129        -1.586452
 H        -0.977348         0.501360        -1.971291
 H         0.208953         1.802012        -1.442943
 H        -1.201584         3.418818         2.521001
 H        -1.913061         1.979769         3.036491
 H         0.157338         2.833499         0.885984
