19
Iteration:   941
 O         0.302024        -0.199631         0.569453
 C        -0.620013         0.779524         0.175576
 C        -2.130995         0.509515         0.387143
 C        -2.165894         2.016182         0.235976
 C        -1.830690         2.494667        -1.234250
 C        -0.672603         1.317067        -1.359310
 O        -2.805614         2.830531         1.409044
 C        -1.691036         2.304608         2.209793
 C        -0.731078         2.085429         1.006926
 H         0.947349        -0.202059        -0.139655
 H        -2.676361        -0.175838        -0.247176
 H        -2.424020         0.376938         1.439385
 H        -2.710152         2.208252        -1.943398
 H        -1.634561         3.522229        -1.075773
 H        -0.950895         0.617886        -2.171629
 H         0.298405         1.615096        -1.735606
 H        -1.228744         3.101818         2.962287
 H        -1.937537         1.348135         2.687283
 H        -0.100337         3.057395         0.654586
