19
Iteration:   172
 O         0.228751        -0.391882         0.363338
 C        -0.643372         0.692694         0.169534
 C        -2.070253         0.544689         0.557595
 C        -2.136663         2.078099         0.272177
 C        -1.938204         2.402131        -1.183149
 C        -0.619478         1.423550        -1.248430
 O        -2.843406         2.665593         1.337074
 C        -1.597497         2.580202         2.169446
 C        -0.763690         2.142587         0.967922
 H         1.126993        -0.028227         0.145348
 H        -2.743451        -0.267466         0.250190
 H        -2.096184         0.395733         1.621564
 H        -2.817768         2.181563        -1.873146
 H        -1.601855         3.441079        -1.327304
 H        -0.536721         0.583661        -2.077769
 H         0.221541         2.075841        -1.400420
 H        -1.303922         3.625835         2.460557
 H        -1.727493         1.967324         3.114140
 H        -0.046683         2.910745         0.556172
