19
Iteration:  3871charge 0 multiplicity 1
 O         0.204461        -0.259004         0.338254
 C        -0.645887         0.740220         0.117602
 C        -2.150122         0.476632         0.374332
 C        -2.152307         2.112474         0.281607
 C        -1.681319         2.538571        -1.181850
 C        -0.556895         1.488995        -1.260785
 O        -2.814824         2.808714         1.350193
 C        -1.744343         2.278471         2.295102
 C        -0.771619         1.923607         1.107414
 H         1.051292         0.091109        -0.010698
 H        -2.663994        -0.155878        -0.422778
 H        -2.530854         0.231055         1.368647
 H        -2.541276         2.385975        -1.850245
 H        -1.421989         3.706245        -0.978071
 H        -0.966347         0.869863        -2.098060
 H         0.463126         1.885167        -1.467051
 H        -1.602128         3.050632         2.960105
 H        -2.133493         1.308455         2.742979
 H        -0.042393         2.766615         1.076876
