19
Iteration:  2451charge 0 multiplicity 1
 O         0.343262        -0.217429         0.396968
 C        -0.649275         0.741840         0.162361
 C        -2.208327         0.485621         0.303341
 C        -2.092328         2.088341         0.332180
 C        -1.954432         2.384565        -1.117572
 C        -0.700492         1.332699        -1.254338
 O        -2.750941         2.867787         1.428026
 C        -1.567057         2.394617         2.191452
 C        -0.726267         2.125911         0.922580
 H         0.070205        -0.959041         0.960638
 H        -2.742600         0.058869        -0.506023
 H        -2.630349         0.065228         1.168711
 H        -2.818253         2.298869        -1.763302
 H        -1.490985         3.327872        -1.400912
 H        -0.847392         0.458886        -1.866263
 H         0.191682         1.883020        -1.683123
 H        -1.160782         3.000532         3.061634
 H        -1.781871         1.396200         2.583493
 H        -0.063180         3.075229         0.904173
