19
Iteration:  4835
 O         0.222579        -0.376104         0.240672
 C        -0.669922         0.749546         0.210480
 C        -2.200120         0.536759         0.234013
 C        -2.067372         2.044140         0.271743
 C        -1.768373         2.511730        -1.148022
 C        -0.440192         1.698168        -1.109379
 O        -2.861577         2.717813         1.287065
 C        -1.769564         2.324605         2.317535
 C        -0.758079         1.957619         1.108977
 H         0.610189        -0.172155         1.093310
 H        -2.700276         0.152532        -0.704478
 H        -2.715433         0.187495         1.132499
 H        -2.544091         2.104968        -1.818169
 H        -1.791705         3.598345        -1.322522
 H        -0.330275         0.978935        -2.020610
 H         0.464624         2.241305        -0.944236
 H        -1.316736         3.155625         2.791568
 H        -2.040300         1.463230         2.932448
 H         0.086467         2.589600         0.922546
