19
Iteration:    31
 O         0.258334        -0.286601         0.277509
 C        -0.656777         0.716049         0.205754
 C        -2.208870         0.476585         0.386446
 C        -2.153109         1.970130         0.278102
 C        -1.811968         2.402640        -1.143575
 C        -0.551871         1.468080        -1.164182
 O        -2.878226         2.562339         1.468355
 C        -1.588150         2.728721         2.095154
 C        -0.733956         2.087061         0.988391
 H         0.647106        -0.314647         1.183797
 H        -2.795207        -0.084944        -0.353946
 H        -2.495022         0.355257         1.412075
 H        -2.672414         2.113707        -1.837603
 H        -1.627895         3.460468        -1.298953
 H        -0.558055         0.721892        -2.049904
 H         0.303132         2.055422        -1.243178
 H        -1.280412         3.828721         2.040238
 H        -1.665411         2.091554         2.982019
 H        -0.066301         2.801483         0.616404
