19
Iteration:   112charge 0 multiplicity 1
 O         0.518422        -0.037713         0.469775
 C        -0.721473         0.710112         0.212832
 C        -2.314570         0.588726         0.375641
 C        -2.164178         2.156631         0.317041
 C        -1.884556         2.267375        -1.258967
 C        -0.686159         1.269824        -1.317943
 O        -2.741038         2.867547         1.426378
 C        -1.623180         2.324620         2.218105
 C        -0.758109         2.027295         0.962043
 H         0.471002        -0.993904         0.269627
 H        -2.793351         0.107355        -0.503008
 H        -2.639933         0.241779         1.400311
 H        -2.768961         1.899730        -1.732462
 H        -1.705919         3.300349        -1.618455
 H        -0.909583         0.535583        -2.012938
 H         0.250231         1.822433        -1.657717
 H        -1.274682         3.127062         2.864846
 H        -1.918162         1.461818         2.848439
 H         0.105501         2.745188         0.843253
