19
Iteration:  1269charge 0 multiplicity 1
 O         0.213101        -0.333159         0.448402
 C        -0.645086         0.724064         0.198326
 C        -2.127841         0.506830         0.213116
 C        -2.109690         2.036108         0.294773
 C        -1.896624         2.398888        -1.236192
 C        -0.642774         1.505070        -1.224879
 O        -2.761212         2.776952         1.384754
 C        -1.705977         2.470779         2.292809
 C        -0.704573         2.077515         1.039529
 H         1.029030         0.178840         0.681778
 H        -2.314132        -0.223947        -0.637463
 H        -2.543188        -0.053752         1.076791
 H        -2.721943         2.183710        -1.914822
 H        -1.606709         3.471113        -1.202774
 H        -0.719368         0.687128        -1.986029
 H         0.344128         1.955251        -1.553915
 H        -1.388793         3.328701         2.992562
 H        -2.013706         1.600733         2.779851
 H         0.108441         2.782795         0.646888
