19
Iteration:  1301charge 0 multiplicity 1
 O         0.244473        -0.366086         0.475187
 C        -0.618304         0.730997         0.133548
 C        -2.170036         0.588056         0.361421
 C        -2.176277         2.045752         0.285758
 C        -1.803331         2.420930        -1.123705
 C        -0.525764         1.553673        -1.221302
 O        -2.889987         2.715412         1.394586
 C        -1.679708         2.458202         2.150447
 C        -0.749000         2.002936         0.956330
 H         0.926421        -0.362188        -0.201878
 H        -2.627134        -0.052617        -0.425399
 H        -2.209078         0.308781         1.428218
 H        -2.525390         2.207833        -1.945663
 H        -1.598766         3.521763        -1.115920
 H        -0.823193         0.737853        -1.945988
 H         0.480033         1.988363        -1.361489
 H        -1.287599         3.444412         2.650415
 H        -1.905150         1.820338         2.940491
 H        -0.022772         2.826828         0.695725
