19
Iteration:  2930charge 0 multiplicity 1
 O         0.217704        -0.301191         0.380385
 C        -0.696894         0.665212         0.144040
 C        -2.196595         0.566284         0.251223
 C        -2.087921         2.091916         0.298420
 C        -1.899373         2.377076        -1.188171
 C        -0.573332         1.500785        -1.256220
 O        -2.756855         2.718288         1.418520
 C        -1.553309         2.446404         2.289211
 C        -0.814807         2.011794         1.029303
 H         0.901521         0.203088         0.860998
 H        -2.728976         0.003682        -0.544338
 H        -2.572079         0.121471         1.266676
 H        -2.745567         2.082474        -1.941168
 H        -1.675521         3.424425        -1.425211
 H        -0.566760         0.938511        -2.185836
 H         0.397766         2.064090        -1.281004
 H        -1.247157         3.500829         2.646748
 H        -1.708646         1.868128         3.203078
 H        -0.146173         2.839971         0.941911
