19
Iteration:    65
 O         0.351873        -0.319652         0.318664
 C        -0.538816         0.733476         0.191390
 C        -2.053663         0.391135         0.281906
 C        -2.098793         2.001182         0.310578
 C        -1.917808         2.387991        -1.155013
 C        -0.690319         1.385116        -1.306070
 O        -2.873413         2.820492         1.424480
 C        -1.681016         2.678075         2.215551
 C        -0.768529         2.093947         1.087792
 H         0.227183        -0.655874         1.240314
 H        -2.542363        -0.188075        -0.482951
 H        -2.427711         0.138935         1.261797
 H        -2.761349         2.113505        -1.811753
 H        -1.585725         3.421214        -1.326820
 H        -0.912779         0.518980        -1.974813
 H         0.107668         1.931214        -1.717546
 H        -1.334678         3.512129         2.820266
 H        -1.850613         1.964156         3.019607
 H        -0.164097         2.824766         0.703822
