19
Iteration:  2421
 O         0.246396        -0.303217         0.326655
 C        -0.653835         0.688114         0.145742
 C        -2.187406         0.483468         0.380516
 C        -2.139247         2.063571         0.327557
 C        -1.908831         2.385377        -1.147275
 C        -0.587917         1.536466        -1.291867
 O        -2.794835         2.790192         1.360737
 C        -1.510822         2.470939         2.247230
 C        -0.807405         2.019953         0.986048
 H         0.400484        -0.241607         1.307107
 H        -2.834053        -0.256811        -0.191512
 H        -2.395684         0.363624         1.450403
 H        -2.768972         2.078085        -1.764125
 H        -1.698997         3.444832        -1.489385
 H        -0.788588         0.719539        -2.010070
 H         0.292874         2.134497        -1.477205
 H        -0.809672         3.243726         2.641821
 H        -1.648610         1.819710         3.141232
 H        -0.011941         2.769920         0.748670
