19
Iteration:  3198
 O         0.241357        -0.292279         0.484568
 C        -0.660367         0.728634         0.154942
 C        -2.158360         0.571530         0.325972
 C        -2.155261         2.110800         0.220612
 C        -1.802816         2.520196        -1.160526
 C        -0.559434         1.536253        -1.253287
 O        -2.826607         2.714343         1.491923
 C        -1.645502         2.327870         2.185457
 C        -0.774394         1.965739         0.992844
 H         0.329685        -0.617938        -0.434108
 H        -2.657405         0.173782        -0.604161
 H        -2.619753         0.046669         1.170799
 H        -2.402678         2.358235        -1.997247
 H        -1.516364         3.584272        -1.319217
 H        -0.472099         0.847957        -2.090204
 H         0.319809         2.216575        -1.266959
 H        -1.307608         3.076167         2.886339
 H        -1.931406         1.414262         2.774249
 H         0.110335         2.657768         0.816447
