19
Iteration:  2285
 O         0.252840        -0.289764         0.404755
 C        -0.636753         0.709198         0.154362
 C        -2.127145         0.558312         0.427253
 C        -2.076532         2.086143         0.312136
 C        -1.880946         2.443358        -1.149973
 C        -0.671789         1.424706        -1.266830
 O        -2.783119         2.753895         1.384092
 C        -1.693236         2.465003         2.210415
 C        -0.720045         2.077053         0.969912
 H         0.342750        -0.866124        -0.359881
 H        -2.736694        -0.178192        -0.022777
 H        -2.356526         0.219918         1.453368
 H        -2.661679         2.161718        -1.876895
 H        -1.626077         3.478078        -1.258517
 H        -0.828363         0.681327        -2.091734
 H         0.360703         1.763418        -1.633078
 H        -1.420501         3.401888         2.813781
 H        -1.792025         1.689771         2.991903
 H         0.297881         2.705406         0.619200
