19
Iteration:  2564charge 0 multiplicity 1
 O         0.285480        -0.259034         0.459670
 C        -0.657705         0.814020         0.171786
 C        -2.159415         0.675876         0.389731
 C        -2.155613         2.114855         0.287714
 C        -1.946782         2.323748        -1.168734
 C        -0.663189         1.362776        -1.328446
 O        -2.769414         2.762570         1.462118
 C        -1.571606         2.372517         2.196801
 C        -0.696617         2.087231         0.949117
 H         0.406806        -0.786570        -0.355770
 H        -2.739260         0.037496        -0.263342
 H        -2.410353         0.366373         1.435612
 H        -2.804946         1.995490        -1.761485
 H        -1.667823         3.297606        -1.608662
 H        -0.758229         0.475763        -2.024592
 H         0.299808         1.723081        -1.415803
 H        -1.445237         3.271957         2.741768
 H        -1.658292         1.525247         2.933528
 H         0.151377         2.677202         0.742226
