19
Iteration:   276charge 0 multiplicity 1
 O         0.345038        -0.239815         0.453749
 C        -0.581486         0.786318         0.204902
 C        -2.169479         0.506235         0.286145
 C        -2.185567         2.111796         0.332428
 C        -1.965764         2.305191        -1.219402
 C        -0.692156         1.218077        -1.276418
 O        -2.808069         2.685097         1.540899
 C        -1.519733         2.642975         2.151930
 C        -0.722328         2.243252         0.955494
 H        -0.162440        -1.065510         0.624337
 H        -2.504604         0.230753        -0.746657
 H        -2.522505        -0.028244         1.177842
 H        -2.902128         2.084608        -1.784845
 H        -1.680281         3.340370        -1.507637
 H        -0.886299         0.311018        -1.800857
 H         0.209821         1.636115        -1.808060
 H        -1.149343         3.586746         2.599394
 H        -1.558958         1.774931         2.756891
 H         0.027027         2.888986         0.505934
