19
Iteration:  1780
 O         0.229248        -0.272070         0.527068
 C        -0.677803         0.748103         0.094119
 C        -2.196639         0.476001         0.338563
 C        -2.175636         2.074627         0.298378
 C        -1.822945         2.461368        -1.101889
 C        -0.640033         1.364439        -1.268710
 O        -2.799779         2.760324         1.318840
 C        -1.555676         2.423305         2.224337
 C        -0.730661         2.151440         1.024546
 H         0.981865        -0.544280        -0.051846
 H        -2.714180        -0.207237        -0.384014
 H        -2.395125         0.122075         1.382144
 H        -2.582711         2.203620        -1.854659
 H        -1.397763         3.527526        -1.230636
 H        -0.991066         0.724267        -2.106445
 H         0.328463         1.877725        -1.542481
 H        -1.459144         3.438906         2.651037
 H        -1.718700         1.503368         2.828772
 H         0.082725         2.796800         0.608925
