19
Iteration:  1597
 O         0.362158        -0.254669         0.357619
 C        -0.648016         0.712981         0.179971
 C        -2.174734         0.495362         0.396775
 C        -2.059099         2.092558         0.269075
 C        -1.902023         2.363922        -1.229463
 C        -0.669171         1.387793        -1.217110
 O        -2.748603         2.896359         1.327472
 C        -1.765202         2.428449         2.298118
 C        -0.770131         2.035281         1.090863
 H         0.589198        -0.817857        -0.416033
 H        -2.685435        -0.091024        -0.379453
 H        -2.442639         0.111043         1.429686
 H        -2.755883         2.179169        -1.780704
 H        -1.416419         3.391562        -1.389037
 H        -0.494824         0.622226        -1.966561
 H         0.195848         2.122986        -1.257028
 H        -1.512589         3.427168         2.845921
 H        -2.136809         1.580807         2.778694
 H         0.123788         2.661027         0.856405
