19
Iteration:  1900
 O         0.213956        -0.270886         0.331157
 C        -0.611421         0.771638         0.211772
 C        -2.168536         0.590062         0.325223
 C        -2.166586         2.035276         0.293837
 C        -1.813621         2.361880        -1.200716
 C        -0.645947         1.326423        -1.243076
 O        -2.775298         2.820638         1.366849
 C        -1.581819         2.470003         2.295208
 C        -0.793199         2.073403         1.037996
 H         0.890850        -0.165778         0.992168
 H        -2.671784        -0.025920        -0.488487
 H        -2.552060         0.210502         1.266484
 H        -2.637532         2.157615        -1.897691
 H        -1.569866         3.478095        -1.408696
 H        -0.939194         0.453066        -1.873076
 H         0.390292         1.589579        -1.633577
 H        -1.186226         3.278036         2.986162
 H        -1.857187         1.401302         2.691250
 H        -0.096446         2.931369         0.692464
