19
Iteration:  1491charge 0 multiplicity 1
 O         0.396963        -0.149550         0.445169
 C        -0.669642         0.745477         0.225661
 C        -2.242052         0.501164         0.293246
 C        -2.084775         2.117822         0.284776
 C        -1.848308         2.315342        -1.228081
 C        -0.655359         1.400849        -1.298372
 O        -2.694344         2.884785         1.372148
 C        -1.699303         2.309579         2.228236
 C        -0.832611         2.025938         1.117229
 H         0.401678        -0.910209        -0.200201
 H        -2.788210        -0.015392        -0.466360
 H        -2.654544         0.456088         1.335088
 H        -2.586045         2.021200        -2.019547
 H        -1.667677         3.412682        -1.443853
 H        -0.828455         0.604070        -1.993714
 H         0.321481         1.910401        -1.492453
 H        -1.279364         2.917869         2.981976
 H        -2.228790         1.603571         2.898329
 H        -0.119147         2.895671         0.996256
