19
Iteration:  2953
 O         0.184165        -0.331804         0.467621
 C        -0.567540         0.791073         0.119461
 C        -2.162453         0.515048         0.288982
 C        -2.167842         2.052328         0.367715
 C        -1.876649         2.475143        -1.103481
 C        -0.634851         1.434787        -1.320666
 O        -2.828883         2.791210         1.434363
 C        -1.630262         2.391992         2.168980
 C        -0.663186         2.065873         0.963396
 H         1.124835        -0.122368         0.576973
 H        -2.526584        -0.104512        -0.494742
 H        -2.459991        -0.061764         1.299865
 H        -2.666993         2.346561        -1.943171
 H        -1.472422         3.492240        -1.225312
 H        -0.914517         0.656984        -2.078465
 H         0.272331         1.889640        -1.715427
 H        -1.371379         3.160069         2.990058
 H        -1.855577         1.418628         2.681884
 H         0.031037         2.903967         0.808009
