19
Iteration:  2054charge 0 multiplicity 1
 O         0.290587        -0.278567         0.445483
 C        -0.701169         0.729147         0.095548
 C        -2.240310         0.405587         0.405807
 C        -2.148141         2.134063         0.283863
 C        -1.821885         2.481832        -1.176617
 C        -0.607400         1.400300        -1.314356
 O        -2.839429         2.693275         1.450159
 C        -1.492910         2.506361         2.215163
 C        -0.758891         2.116427         0.916995
 H        -0.030735        -0.535698         1.338101
 H        -2.732087         0.085428        -0.479426
 H        -2.662541         0.108049         1.348622
 H        -2.571922         2.231290        -1.928024
 H        -1.444718         3.534156        -1.242898
 H        -0.810705         0.612634        -2.083376
 H         0.403234         1.806421        -1.455344
 H        -1.119954         3.449803         2.603101
 H        -1.667133         1.674508         2.991883
 H         0.084818         2.756674         0.598632
