19
Iteration:  2978
 O         0.285572        -0.311355         0.418680
 C        -0.607066         0.823628         0.168925
 C        -2.168497         0.535607         0.411461
 C        -2.077265         2.159842         0.312255
 C        -1.794575         2.566849        -1.205546
 C        -0.770274         1.369403        -1.265714
 O        -2.756848         2.741129         1.325437
 C        -1.695041         2.260219         2.312987
 C        -0.787988         2.089943         0.961682
 H         1.095886        -0.198571        -0.120564
 H        -2.645238        -0.232050        -0.276386
 H        -2.451900         0.236396         1.456723
 H        -2.607660         2.273562        -1.849045
 H        -1.346663         3.544028        -1.536806
 H        -1.060014         0.492126        -1.923243
 H         0.183099         1.712720        -1.641736
 H        -1.275398         3.017298         3.021487
 H        -2.097924         1.311640         2.861032
 H        -0.028068         2.948308         0.891905
