19
Iteration:   973
 O         0.472741        -0.100273         0.441583
 C        -0.646114         0.748744         0.212691
 C        -2.176451         0.520835         0.271347
 C        -2.096920         2.190334         0.263061
 C        -1.814516         2.441615        -1.128803
 C        -0.729963         1.210156        -1.231194
 O        -2.913219         2.847674         1.338630
 C        -1.686609         2.325008         2.206140
 C        -0.703207         1.991439         1.096724
 H         0.531108        -0.731006        -0.320819
 H        -2.732818         0.090780        -0.565989
 H        -2.663434         0.200105         1.204971
 H        -2.692644         2.125700        -1.789518
 H        -1.569240         3.442024        -1.357865
 H        -1.239467         0.447174        -1.862912
 H         0.235059         1.448071        -1.602143
 H        -1.226122         3.186746         2.839956
 H        -2.072163         1.630816         2.965389
 H         0.147779         2.719901         0.871831
