19
Iteration:  1481
 O         0.473473        -0.200110         0.402216
 C        -0.697337         0.728335         0.210138
 C        -2.189151         0.487768         0.342167
 C        -2.204751         2.099805         0.291164
 C        -1.819817         2.369486        -1.242621
 C        -0.662050         1.373480        -1.248856
 O        -2.730901         2.990311         1.384574
 C        -1.745666         2.334203         2.277061
 C        -0.799007         1.980215         1.037817
 H         0.184490        -0.997825        -0.111908
 H        -2.578183        -0.047075        -0.509565
 H        -2.537962        -0.001222         1.288198
 H        -2.650055         2.107183        -1.942000
 H        -1.447470         3.358890        -1.354677
 H        -0.622594         0.712218        -2.108830
 H         0.232871         1.976109        -1.296383
 H        -1.317957         3.088343         2.778788
 H        -2.206950         1.512347         2.896308
 H        -0.097920         2.825435         0.913767
