19
Iteration:  2917charge 0 multiplicity 1
 O         0.273019        -0.324418         0.303976
 C        -0.703174         0.764677         0.227998
 C        -2.258755         0.495108         0.326328
 C        -2.184365         2.101390         0.243982
 C        -1.891029         2.437522        -1.273626
 C        -0.600900         1.499020        -1.183907
 O        -2.773581         2.724512         1.449118
 C        -1.596195         2.485954         2.235195
 C        -0.674655         1.976733         1.054915
 H         1.000745        -0.101039         0.906538
 H        -2.691183        -0.121031        -0.547600
 H        -2.689768         0.228439         1.232112
 H        -2.679073         1.984573        -1.939048
 H        -1.613813         3.486148        -1.498578
 H        -0.433862         0.760683        -1.929188
 H         0.243362         2.253542        -1.054953
 H        -1.145324         3.388726         2.658843
 H        -1.854524         1.733186         2.921825
 H         0.194099         2.500604         0.767418
