19
Iteration:  1000charge 0 multiplicity 1
 O         0.401540        -0.241730         0.385138
 C        -0.652030         0.762779         0.118499
 C        -2.199530         0.381323         0.401025
 C        -2.136572         2.099873         0.237348
 C        -1.832204         2.333149        -1.147241
 C        -0.599584         1.445609        -1.206940
 O        -2.778657         2.827187         1.309778
 C        -1.698803         2.429160         2.295098
 C        -0.840093         2.127454         1.004178
 H         0.033289        -1.133066         0.182996
 H        -2.824098        -0.160266        -0.323125
 H        -2.279435         0.091071         1.457849
 H        -2.556318         2.214993        -1.920690
 H        -1.602961         3.472343        -1.151871
 H        -0.686816         0.816549        -2.077837
 H         0.304109         2.178452        -1.203537
 H        -1.372335         3.304367         2.757143
 H        -1.995222         1.699599         3.073900
 H        -0.056298         2.844953         0.799018
