19
Iteration:  4818
 O         0.301231        -0.427218         0.219314
 C        -0.580186         0.749125         0.175745
 C        -2.120845         0.503165         0.200175
 C        -2.168537         2.124246         0.303560
 C        -1.809911         2.534232        -1.051671
 C        -0.526359         1.569785        -1.181770
 O        -2.854957         2.800295         1.276606
 C        -1.842467         2.343393         2.210582
 C        -0.720088         1.944376         1.225454
 H         0.495544        -0.659401         1.129310
 H        -2.545446         0.081695        -0.706445
 H        -2.385837         0.020968         1.204528
 H        -2.499361         2.486656        -1.923468
 H        -1.538601         3.617842        -1.062245
 H        -0.597466         0.960646        -2.025179
 H         0.312648         2.344081        -1.134633
 H        -1.578617         3.219083         2.963647
 H        -2.253526         1.602065         2.922123
 H         0.088869         2.774711         1.238774
