19
Iteration:  1876charge 0 multiplicity 1
 O         0.354568        -0.327950         0.321175
 C        -0.647422         0.650087         0.155578
 C        -2.121103         0.481972         0.426814
 C        -2.104580         2.207083         0.366933
 C        -1.919364         2.386399        -1.180911
 C        -0.719744         1.359150        -1.270111
 O        -2.713549         2.974985         1.273642
 C        -1.770135         2.379036         2.232844
 C        -0.742626         1.993306         1.066749
 H         1.050079         0.012606         0.921185
 H        -2.815070         0.057475        -0.334896
 H        -2.460118         0.050251         1.414273
 H        -2.918992         2.238246        -1.649067
 H        -1.582117         3.362346        -1.569975
 H        -0.616324         0.658992        -2.122719
 H         0.243701         1.933002        -1.251554
 H        -1.359417         3.265401         2.745270
 H        -2.173874         1.468589         2.853086
 H         0.096514         2.762172         1.034044
