19
Iteration:  4122charge 0 multiplicity 1
 O         0.332568        -0.359018         0.223830
 C        -0.622256         0.717443         0.120754
 C        -2.107060         0.485691         0.265621
 C        -2.053542         2.097348         0.347788
 C        -1.780146         2.443977        -1.048649
 C        -0.569569         1.552424        -1.232623
 O        -2.832260         2.866157         1.279857
 C        -1.791032         2.350845         2.310818
 C        -0.801978         1.993512         1.130584
 H         0.152068        -0.844029         1.054947
 H        -2.836036         0.264912        -0.522169
 H        -2.603393         0.111296         1.107033
 H        -2.528683         2.277321        -1.745730
 H        -1.554896         3.545598        -1.000697
 H        -0.740173         0.896856        -2.121934
 H         0.414216         2.205153        -1.308123
 H        -1.710197         3.084363         3.071589
 H        -2.298323         1.415254         2.801916
 H        -0.164200         2.877948         1.000676
