19
Iteration:  4068
 O         0.356732        -0.345829         0.389403
 C        -0.698869         0.765733         0.099852
 C        -2.236743         0.591360         0.231237
 C        -2.121674         2.164476         0.312089
 C        -1.791427         2.553392        -1.114309
 C        -0.508354         1.491882        -1.319602
 O        -2.863389         2.627324         1.438414
 C        -1.732866         2.354824         2.224506
 C        -0.687866         1.997613         1.077217
 H         0.064963        -0.738762         1.252940
 H        -2.786709         0.223820        -0.663905
 H        -2.604527         0.186298         1.153313
 H        -2.524438         2.525105        -1.826138
 H        -1.469968         3.645838        -1.106760
 H        -0.640091         0.793670        -2.189837
 H         0.599557         1.915903        -1.543733
 H        -1.612185         3.154612         2.875908
 H        -2.082121         1.532115         3.033395
 H        -0.081337         2.864625         0.774765
