19
Iteration:  4087charge 0 multiplicity 1
 O         0.301903        -0.239628         0.261142
 C        -0.656898         0.691378         0.203782
 C        -2.219377         0.564396         0.241594
 C        -2.116972         2.100844         0.285328
 C        -1.663437         2.540506        -1.182369
 C        -0.552357         1.484338        -1.148548
 O        -2.902850         2.637049         1.415919
 C        -1.638475         2.340924         2.286292
 C        -0.859063         2.061481         1.044951
 H        -0.120183        -0.919205         0.825662
 H        -2.762365         0.113110        -0.597829
 H        -2.575035         0.345976         1.214688
 H        -2.403097         2.314701        -1.999568
 H        -1.332369         3.563150        -1.255296
 H        -0.559059         0.862506        -2.073001
 H         0.438414         1.991020        -1.237386
 H        -1.352746         3.351339         2.708486
 H        -1.888857         1.633645         3.109863
 H         0.066480         2.620462         0.835322
