19
Iteration:  1838charge 0 multiplicity 1
 O         0.212405        -0.295075         0.334787
 C        -0.634999         0.784080         0.174478
 C        -2.149379         0.495369         0.408378
 C        -2.148691         2.114245         0.316055
 C        -1.857935         2.358123        -1.134972
 C        -0.620765         1.344717        -1.218162
 O        -2.802736         2.874742         1.369212
 C        -1.600871         2.443981         2.160509
 C        -0.788779         2.015049         1.022002
 H         1.068088        -0.074423         0.689497
 H        -2.599201         0.133051        -0.525281
 H        -2.428906        -0.144176         1.205252
 H        -2.654649         2.088662        -1.821620
 H        -1.511939         3.367475        -1.470992
 H        -0.571472         0.654797        -2.058142
 H         0.309848         1.954690        -1.329356
 H        -1.183292         3.226665         2.785351
 H        -1.898632         1.729729         2.862788
 H        -0.057065         2.767835         0.798514
