19
Iteration:  2325
 O         0.289226        -0.280565         0.518128
 C        -0.732007         0.759720         0.167565
 C        -2.209342         0.502797         0.281738
 C        -2.163808         2.124614         0.254014
 C        -1.920461         2.407924        -1.192051
 C        -0.622092         1.381493        -1.237897
 O        -2.709251         2.769457         1.494915
 C        -1.593132         2.430879         2.256953
 C        -0.686920         2.088595         0.887084
 H         0.891162        -0.375317        -0.259789
 H        -2.604221         0.126297        -0.731427
 H        -2.553707         0.226702         1.294262
 H        -2.685378         1.979388        -1.884039
 H        -1.741485         3.472071        -1.482945
 H        -1.109818         0.654467        -1.963493
 H         0.284069         1.915237        -1.457266
 H        -1.358482         3.215255         2.937296
 H        -1.922690         1.523715         2.927670
 H         0.075515         2.733685         0.554688
