19
Iteration:  4225charge 0 multiplicity 1
 O         0.248235        -0.305794         0.327448
 C        -0.653752         0.761659         0.170344
 C        -2.149867         0.546758         0.260329
 C        -2.051550         2.085427         0.290164
 C        -1.817554         2.562541        -1.065975
 C        -0.536708         1.482643        -1.215584
 O        -2.814049         2.725025         1.364928
 C        -1.734718         2.324541         2.200002
 C        -0.750519         2.027102         1.065664
 H        -0.178853        -1.035298         0.817153
 H        -2.433980         0.029789        -0.641585
 H        -2.394237         0.142081         1.286852
 H        -2.691892         2.476854        -1.791602
 H        -1.439998         3.540209        -1.089525
 H        -0.835775         0.814123        -2.078113
 H         0.355254         2.032154        -1.485887
 H        -1.509868         3.203578         2.913650
 H        -2.085012         1.432394         2.710853
 H         0.025933         2.813542         0.956897
