19
Iteration:  3948
 O         0.309304        -0.352258         0.358799
 C        -0.625158         0.695061         0.129757
 C        -2.151890         0.556938         0.310629
 C        -2.154949         2.137744         0.338024
 C        -1.718784         2.584377        -1.168195
 C        -0.487846         1.543800        -1.323406
 O        -2.953267         2.690365         1.426594
 C        -1.733767         2.340681         2.310390
 C        -0.756622         2.053835         1.001819
 H        -0.274606        -1.122133         0.520993
 H        -2.779539         0.020559        -0.448618
 H        -2.235980         0.247196         1.331999
 H        -2.444203         2.394782        -1.921440
 H        -1.555722         3.742015        -1.165347
 H        -0.573949         0.854103        -2.191864
 H         0.585567         1.907506        -1.349266
 H        -1.389140         2.973963         3.040269
 H        -1.928858         1.352663         2.766195
 H        -0.133823         2.915503         0.801494
