19
Iteration:   557
 O         0.242129        -0.346182         0.499138
 C        -0.596686         0.811728         0.088624
 C        -2.065260         0.487001         0.401174
 C        -2.207080         2.107914         0.303881
 C        -1.973034         2.256858        -1.202592
 C        -0.683196         1.304592        -1.326702
 O        -2.822023         2.922068         1.452538
 C        -1.539069         2.472989         2.183273
 C        -0.721496         2.163384         0.959763
 H         1.100475         0.008017         0.847792
 H        -2.608873        -0.150209        -0.236386
 H        -2.166784         0.123485         1.405855
 H        -2.766895         1.908599        -1.802965
 H        -1.707828         3.265575        -1.629758
 H        -0.910589         0.391375        -1.904874
 H         0.213211         1.749015        -1.832130
 H        -1.142458         3.323399         2.809875
 H        -1.818736         1.617403         2.835902
 H        -0.070269         2.944939         0.534703
