19
Iteration:  2897
 O         0.269381        -0.337532         0.209658
 C        -0.645023         0.713474         0.168583
 C        -2.164564         0.565503         0.390170
 C        -2.122477         2.106101         0.369938
 C        -1.865420         2.394481        -1.103891
 C        -0.604191         1.418866        -1.178930
 O        -2.836657         2.813462         1.314534
 C        -1.643853         2.379767         2.206650
 C        -0.738556         2.110760         1.041899
 H         0.762191        -0.300479         1.055868
 H        -2.626788         0.017758        -0.446678
 H        -2.441512         0.156072         1.396856
 H        -2.629005         2.077629        -1.893809
 H        -1.558655         3.438775        -1.280474
 H        -0.829764         0.743454        -1.983299
 H         0.397586         1.885373        -1.362267
 H        -1.330071         3.316291         2.755292
 H        -1.827863         1.542666         2.902593
 H        -0.015866         2.883956         0.866451
