19
Iteration:  2020charge 0 multiplicity 1
 O         0.304150        -0.307436         0.222722
 C        -0.648406         0.739164         0.187055
 C        -2.154537         0.458125         0.402604
 C        -2.077276         2.143325         0.338893
 C        -1.866186         2.367721        -1.113293
 C        -0.669511         1.365297        -1.199678
 O        -2.821631         2.891329         1.283350
 C        -1.627244         2.469913         2.219366
 C        -0.744282         2.038168         1.047421
 H         0.449419        -0.355892         1.180430
 H        -2.634232        -0.026115        -0.511031
 H        -2.496610        -0.117943         1.279138
 H        -2.792363         2.171528        -1.661974
 H        -1.615967         3.476657        -1.294703
 H        -0.955253         0.590434        -1.946766
 H         0.379965         1.681731        -1.460716
 H        -1.218574         3.308891         2.788574
 H        -2.124141         1.848872         3.048487
 H         0.157613         2.747486         1.020329
