19
Iteration:  2821charge 0 multiplicity 1
 O         0.286225        -0.200523         0.494530
 C        -0.691489         0.742983         0.178850
 C        -2.234000         0.504801         0.322020
 C        -2.190667         2.094775         0.284377
 C        -1.814029         2.425184        -1.224104
 C        -0.626716         1.416964        -1.283566
 O        -2.808398         2.799977         1.420590
 C        -1.474414         2.387545         2.270127
 C        -0.778775         1.988928         0.958691
 H         0.642466        -0.625072        -0.297754
 H        -2.919476        -0.046149        -0.397164
 H        -2.550526         0.215771         1.337813
 H        -2.678494         2.055483        -1.803211
 H        -1.555060         3.462300        -1.424879
 H        -0.808680         0.688173        -2.032922
 H         0.314051         2.013258        -1.394688
 H        -1.023511         3.259128         2.859465
 H        -1.838822         1.499586         2.788268
 H        -0.087723         2.800832         0.793979
