19
Iteration:  1939charge 0 multiplicity 1
 O         0.253426        -0.292838         0.483327
 C        -0.667932         0.738029         0.199264
 C        -2.150707         0.572869         0.328957
 C        -2.217364         2.060048         0.286931
 C        -1.856660         2.511127        -1.185091
 C        -0.642413         1.431386        -1.338985
 O        -2.791708         2.671303         1.391666
 C        -1.484291         2.453061         2.184513
 C        -0.721381         1.987522         0.974045
 H         0.226453        -0.442759         1.469848
 H        -2.908666         0.201614        -0.336322
 H        -2.416748         0.361505         1.403558
 H        -2.678872         2.260051        -1.906606
 H        -1.563053         3.500310        -1.325124
 H        -0.922229         0.630880        -2.026362
 H         0.293934         1.876470        -1.603503
 H        -1.398005         3.505818         2.419506
 H        -1.611636         1.874110         3.007513
 H        -0.097535         2.764990         0.639732
