19
Iteration:  4065charge 0 multiplicity 1
 O         0.344711        -0.345118         0.395118
 C        -0.666754         0.758275         0.104775
 C        -2.200226         0.587442         0.207960
 C        -2.127718         2.143925         0.329973
 C        -1.814922         2.576101        -1.114155
 C        -0.513510         1.482280        -1.310512
 O        -2.851636         2.656182         1.423193
 C        -1.720546         2.308041         2.226197
 C        -0.712734         2.002168         1.090794
 H        -0.016529        -0.562400         1.278260
 H        -2.722694         0.264773        -0.687790
 H        -2.549549         0.256477         1.154742
 H        -2.602695         2.522135        -1.926772
 H        -1.518288         3.597153        -1.041810
 H        -0.703499         0.778378        -2.173094
 H         0.496585         1.888497        -1.574577
 H        -1.619103         3.244187         2.879424
 H        -2.143200         1.564730         2.967889
 H        -0.008504         2.807401         0.748078
