19
Iteration:  3763charge 0 multiplicity 1
 O         0.239611        -0.259922         0.393988
 C        -0.620699         0.756672         0.157585
 C        -2.075782         0.576400         0.189809
 C        -2.078316         2.158540         0.278708
 C        -1.732482         2.537224        -1.164834
 C        -0.650763         1.366824        -1.326815
 O        -2.776642         2.815461         1.375295
 C        -1.819080         2.153056         2.409057
 C        -0.808719         2.030115         1.081911
 H         1.109866         0.094296         0.130529
 H        -2.528456         0.134185        -0.742553
 H        -2.341093         0.156103         1.180790
 H        -2.632031         2.408579        -1.678481
 H        -1.417744         3.625683        -1.296223
 H        -1.013854         0.604418        -1.976010
 H         0.221233         1.828036        -1.765185
 H        -1.519729         2.840668         3.161833
 H        -2.350665         1.351434         2.993252
 H        -0.086431         2.766662         1.317561
