19
Iteration:  1310
 O         0.282909        -0.328563         0.407195
 C        -0.674044         0.773809         0.177679
 C        -2.152096         0.538139         0.411826
 C        -2.216461         2.085259         0.238995
 C        -1.777208         2.464156        -1.160178
 C        -0.552778         1.426060        -1.255042
 O        -2.880101         2.690078         1.381297
 C        -1.666946         2.493065         2.217156
 C        -0.714831         2.042608         1.021353
 H         0.907789        -0.569146        -0.273909
 H        -2.824502        -0.043547        -0.253915
 H        -2.606957         0.266478         1.390480
 H        -2.434726         2.285122        -2.086378
 H        -1.467588         3.501150        -1.248429
 H        -0.491274         0.715482        -2.204389
 H         0.383309         1.924899        -1.192591
 H        -1.446328         3.388099         2.901014
 H        -1.936565         1.659614         2.859585
 H        -0.062167         2.851031         0.814925
