19
Iteration:  3549charge 0 multiplicity 1
 O         0.170340        -0.417858         0.273616
 C        -0.561008         0.760960         0.122684
 C        -2.054951         0.577221         0.277214
 C        -2.111286         2.178970         0.299338
 C        -1.735474         2.501455        -1.159252
 C        -0.558821         1.534218        -1.217440
 O        -2.890571         2.698577         1.403135
 C        -1.837467         2.320904         2.332732
 C        -0.740377         2.079177         1.107059
 H         1.014729        -0.506781        -0.203860
 H        -2.611082         0.116461        -0.446943
 H        -2.343874         0.287641         1.229769
 H        -2.554190         2.130630        -1.852316
 H        -1.535429         3.585505        -1.324427
 H        -0.637184         0.776425        -1.958170
 H         0.454716         1.912731        -1.210116
 H        -1.696435         3.148160         2.993465
 H        -2.047877         1.439856         2.900486
 H         0.083901         2.824252         1.034936
