19
Iteration:  4356
 O         0.291019        -0.359987         0.397392
 C        -0.749492         0.760953         0.200052
 C        -2.221797         0.628575         0.199751
 C        -2.060174         2.134703         0.298393
 C        -1.781840         2.540179        -1.205002
 C        -0.589619         1.512671        -1.261081
 O        -2.811617         2.719863         1.425543
 C        -1.687800         2.217311         2.214666
 C        -0.747726         2.045942         1.059440
 H         0.821643        -0.134440         1.205058
 H        -2.777425         0.184971        -0.646334
 H        -2.587280         0.248232         1.137585
 H        -2.577318         2.209906        -1.900961
 H        -1.542201         3.546473        -1.223705
 H        -0.672357         0.631049        -2.026294
 H         0.297045         2.145612        -1.382408
 H        -1.374580         2.996049         2.987716
 H        -1.969703         1.315824         2.763218
 H         0.189312         2.656122         0.980410
