19
Iteration:  2101
 O         0.360874        -0.303745         0.343584
 C        -0.592447         0.727154         0.197612
 C        -2.140152         0.527007         0.303466
 C        -2.104694         2.143822         0.306682
 C        -1.870446         2.360319        -1.171716
 C        -0.726544         1.326840        -1.308491
 O        -2.810511         2.970730         1.394775
 C        -1.649910         2.356550         2.289553
 C        -0.743188         2.118541         1.033605
 H         0.277534        -0.894436         1.096287
 H        -2.534746        -0.167141        -0.411981
 H        -2.404479         0.074928         1.301397
 H        -2.878329         2.063584        -1.599049
 H        -1.627069         3.313633        -1.558795
 H        -0.867066         0.595910        -2.101953
 H         0.261269         1.745016        -1.516863
 H        -1.381814         3.187768         3.004602
 H        -2.042783         1.397660         2.707343
 H        -0.253657         2.945727         0.594046
