19
Iteration:  2523charge 0 multiplicity 1
 O         0.354389        -0.286571         0.373917
 C        -0.634160         0.717974         0.240819
 C        -2.192616         0.452358         0.319320
 C        -2.259142         2.032409         0.358862
 C        -1.947921         2.385017        -1.071127
 C        -0.637050         1.450462        -1.231122
 O        -2.724130         2.828831         1.371820
 C        -1.561695         2.585596         2.150089
 C        -0.714295         2.015912         0.968933
 H        -0.138253        -1.068248         0.093148
 H        -2.617656        -0.198163        -0.557152
 H        -2.348707        -0.135115         1.338765
 H        -2.766519         2.243980        -1.862187
 H        -1.736996         3.484502        -1.044661
 H        -0.749670         0.740208        -2.084717
 H         0.169775         2.165248        -1.531820
 H        -1.054942         3.452148         2.573305
 H        -1.885528         1.812081         2.960775
 H        -0.166906         2.798545         0.498820
