19
Iteration:  3296
 O         0.199958        -0.404593         0.273320
 C        -0.672634         0.695842         0.121380
 C        -2.115202         0.482241         0.216990
 C        -2.149005         2.096362         0.326389
 C        -1.830213         2.552073        -1.137403
 C        -0.495149         1.585002        -1.197067
 O        -2.849548         2.751019         1.357272
 C        -1.667495         2.436563         2.326466
 C        -0.779842         1.936805         1.112269
 H         0.906257        -0.305206         0.919055
 H        -2.526058         0.084154        -0.722898
 H        -2.473037        -0.110684         1.159089
 H        -2.719193         2.353999        -1.757496
 H        -1.446612         3.614466        -1.450644
 H        -0.504687         1.014147        -2.098833
 H         0.415999         2.241932        -1.214985
 H        -1.318599         3.313788         2.828643
 H        -2.047560         1.745387         3.102146
 H         0.032084         2.722004         1.051763
