19
Iteration:  1160
 O         0.219053        -0.274980         0.290351
 C        -0.639407         0.747734         0.253448
 C        -2.091386         0.540228         0.401341
 C        -2.189374         2.073962         0.327511
 C        -1.820297         2.356611        -1.289056
 C        -0.526690         1.509057        -1.185579
 O        -2.872000         2.685322         1.333409
 C        -1.584056         2.446787         2.230848
 C        -0.789068         2.108252         0.992172
 H        -0.251582        -0.960848         0.774570
 H        -2.759499        -0.098631        -0.187748
 H        -2.235066         0.369303         1.499569
 H        -2.583859         2.090943        -2.041947
 H        -1.667737         3.419438        -1.389560
 H        -0.402961         0.708140        -1.980723
 H         0.404672         2.120888        -1.108237
 H        -1.290592         3.495684         2.724886
 H        -1.777748         1.711330         3.040410
 H         0.110931         2.830069         1.049898
