19
Iteration:   684
 O         0.363046        -0.148359         0.558848
 C        -0.656383         0.704737         0.210996
 C        -2.148570         0.442355         0.416377
 C        -2.228772         2.187127         0.274726
 C        -1.941031         2.294406        -1.262954
 C        -0.677093         1.355508        -1.389594
 O        -2.747998         2.872611         1.431844
 C        -1.525424         2.409144         2.196919
 C        -0.757527         2.134780         0.901629
 H        -0.022470        -1.009977         0.790851
 H        -2.683087        -0.117252        -0.424482
 H        -2.397255         0.029422         1.439772
 H        -2.698610         1.885674        -1.886710
 H        -1.794520         3.406174        -1.517470
 H        -0.797858         0.430554        -1.907612
 H         0.314591         1.653400        -1.743572
 H        -1.263498         3.147719         2.978923
 H        -1.805876         1.417457         2.733475
 H        -0.049313         2.893869         0.652410
