19
Iteration:  3840charge 0 multiplicity 1
 O         0.243963        -0.487832         0.270436
 C        -0.571994         0.761526         0.194133
 C        -2.106176         0.631608         0.188831
 C        -2.106714         2.151465         0.305894
 C        -1.801948         2.538117        -1.111128
 C        -0.551511         1.465138        -1.187142
 O        -2.909120         2.677297         1.376788
 C        -1.690517         2.403189         2.317521
 C        -0.798736         2.048046         1.072582
 H         1.109165        -0.390264         0.714036
 H        -2.616268         0.134380        -0.712993
 H        -2.710708         0.242645         1.007128
 H        -2.605122         2.371548        -1.813127
 H        -1.580462         3.708642        -1.196325
 H        -0.861258         0.827556        -1.940866
 H         0.389519         1.899456        -1.515933
 H        -1.466885         3.346400         2.759925
 H        -1.865022         1.552343         3.023910
 H        -0.203725         2.920338         1.087041
