19
Iteration:  3195charge 0 multiplicity 1
 O         0.223607        -0.303044         0.469788
 C        -0.668052         0.764482         0.152839
 C        -2.152031         0.582045         0.350925
 C        -2.138496         2.099462         0.202467
 C        -1.786890         2.525181        -1.172163
 C        -0.528051         1.527791        -1.251522
 O        -2.825728         2.699315         1.507739
 C        -1.675599         2.311405         2.206748
 C        -0.767897         1.976417         0.989154
 H         0.359671        -0.555516        -0.478993
 H        -2.741045         0.180043        -0.565560
 H        -2.531926         0.158057         1.194589
 H        -2.439045         2.193370        -2.049738
 H        -1.565810         3.615192        -1.349151
 H        -0.534925         0.811157        -2.130191
 H         0.274058         2.199276        -1.313649
 H        -1.260373         3.124539         2.807444
 H        -1.958961         1.495140         2.781451
 H         0.052540         2.638942         0.875124
