19
Iteration:  2759charge 0 multiplicity 1
 O         0.272726        -0.295940         0.248680
 C        -0.586571         0.753909         0.193343
 C        -2.134320         0.553107         0.461104
 C        -2.104165         2.127202         0.306995
 C        -1.893288         2.463723        -1.180788
 C        -0.722637         1.306049        -1.228111
 O        -2.782533         2.780321         1.364094
 C        -1.682565         2.429764         2.196136
 C        -0.720217         2.052306         1.014367
 H         0.860475        -0.256320         1.012455
 H        -2.705513         0.081596        -0.289685
 H        -2.364003         0.288611         1.570140
 H        -2.764658         2.215170        -1.773628
 H        -1.531107         3.469966        -1.450004
 H        -0.900105         0.495692        -2.045244
 H         0.244422         1.729423        -1.452702
 H        -1.241695         3.204239         2.791214
 H        -2.144334         1.714830         2.911442
 H         0.245678         2.718603         0.895894
