19
Iteration:  2142
 O         0.400212        -0.257241         0.157133
 C        -0.801829         0.662603         0.292158
 C        -2.251228         0.543598         0.469246
 C        -2.082421         2.055495         0.292985
 C        -1.820913         2.382581        -1.133273
 C        -0.662213         1.410611        -1.233926
 O        -2.775792         2.802990         1.254186
 C        -1.637121         2.514151         2.184198
 C        -0.749289         2.024710         1.117911
 H         0.691511        -0.506625         1.064980
 H        -2.825901         0.024038        -0.188932
 H        -2.479797         0.367906         1.507167
 H        -2.671141         2.139353        -1.793334
 H        -1.581627         3.406893        -1.158874
 H        -0.741074         0.662456        -2.061865
 H         0.230203         1.993267        -1.310894
 H        -1.170496         3.253454         2.797747
 H        -1.972520         1.685909         2.898776
 H         0.010871         2.761052         0.916825
