19
Iteration:  4042
 O         0.225673        -0.267188         0.365870
 C        -0.681600         0.835200         0.215864
 C        -2.114649         0.413771         0.195446
 C        -2.101667         2.180253         0.285183
 C        -1.723684         2.514580        -1.120434
 C        -0.662923         1.536723        -1.242480
 O        -2.765896         2.794232         1.362276
 C        -1.711635         2.181330         2.253967
 C        -0.797292         2.002907         1.053886
 H         0.582265        -0.458799         1.253014
 H        -2.325640        -0.046260        -0.750609
 H        -2.387494        -0.053893         1.152034
 H        -2.645082         2.370633        -1.819173
 H        -1.377935         3.497037        -1.255519
 H        -0.786666         0.783173        -2.049451
 H         0.272271         1.977870        -1.514251
 H        -1.419901         2.915723         3.137724
 H        -2.129196         1.308676         2.803271
 H        -0.200171         2.944213         0.830654
