19
Iteration:   740
 O         0.345193        -0.310466         0.251955
 C        -0.630686         0.642945         0.186832
 C        -2.095054         0.531356         0.509595
 C        -2.048629         2.141914         0.320371
 C        -1.923047         2.369845        -1.171664
 C        -0.731001         1.337879        -1.229095
 O        -2.867268         2.774440         1.276036
 C        -1.697260         2.582212         2.167922
 C        -0.663254         2.024343         1.067422
 H         0.913966         0.021686         0.958021
 H        -2.833293        -0.124557        -0.103852
 H        -2.450880         0.331459         1.543237
 H        -2.747365         2.193225        -1.791822
 H        -1.631209         3.497487        -1.402679
 H        -0.843061         0.496194        -1.871350
 H         0.198575         1.798804        -1.308043
 H        -1.339262         3.575730         2.401405
 H        -2.091865         2.068101         3.165639
 H         0.064943         2.789752         0.872496
