19
Iteration:   611charge 0 multiplicity 1
 O         0.379422        -0.240363         0.316606
 C        -0.634535         0.711225         0.223235
 C        -2.138717         0.510561         0.580601
 C        -2.225747         2.097978         0.323397
 C        -1.851796         2.256570        -1.155506
 C        -0.672596         1.251347        -1.229486
 O        -2.832254         2.923278         1.332006
 C        -1.615281         2.543721         2.176840
 C        -0.826257         2.058949         0.960591
 H         0.759271        -0.127627        -0.589995
 H        -2.535907        -0.031843        -0.249935
 H        -2.441039         0.125824         1.534002
 H        -2.584095         2.173987        -1.899181
 H        -1.298679         3.232280        -1.275466
 H        -0.826378         0.462009        -1.952382
 H         0.313017         1.651140        -1.458559
 H        -1.154103         3.398703         2.554703
 H        -1.945159         1.933727         2.984406
 H        -0.048308         2.739272         0.563689
