19
Iteration:  2932charge 0 multiplicity 1
 O         0.215734        -0.309503         0.394656
 C        -0.700814         0.678207         0.136564
 C        -2.180141         0.561160         0.238944
 C        -2.079990         2.097558         0.292066
 C        -1.884568         2.375312        -1.165424
 C        -0.573312         1.499871        -1.271960
 O        -2.764052         2.721981         1.415007
 C        -1.551709         2.436939         2.298773
 C        -0.822081         2.018149         1.014536
 H         0.900620         0.227439         0.851512
 H        -2.823097         0.118883        -0.518527
 H        -2.514970         0.033122         1.287045
 H        -2.741783         2.046770        -1.848352
 H        -1.698596         3.431784        -1.362982
 H        -0.618427         0.881150        -2.214839
 H         0.360356         2.038362        -1.283188
 H        -1.250726         3.509278         2.610792
 H        -1.749118         1.830597         3.253389
 H        -0.163250         2.910571         0.885904
