19
Iteration:  2808
 O         0.213393        -0.289015         0.537965
 C        -0.687356         0.726416         0.104158
 C        -2.142374         0.509039         0.296539
 C        -2.153441         2.141027         0.321920
 C        -1.903933         2.387082        -1.178736
 C        -0.582065         1.446042        -1.297802
 O        -2.778710         2.850241         1.482661
 C        -1.579066         2.315565         2.232324
 C        -0.813532         2.061041         0.938781
 H         0.842075        -0.332001        -0.227917
 H        -2.603897        -0.229327        -0.509514
 H        -2.171092         0.129753         1.246517
 H        -2.672067         2.051777        -1.960750
 H        -1.661732         3.440316        -1.515608
 H        -0.611524         0.757326        -2.074317
 H         0.445299         1.957379        -1.484050
 H        -1.119008         3.320819         2.526864
 H        -1.588932         1.846277         3.202620
 H        -0.064279         2.689513         0.613351
