19
Iteration:  4439
 O         0.286005        -0.271891         0.309109
 C        -0.645742         0.771535         0.157081
 C        -2.211505         0.555461         0.238140
 C        -2.070762         2.141813         0.281254
 C        -1.698429         2.559656        -1.152368
 C        -0.590335         1.399265        -1.229982
 O        -2.914248         2.671208         1.431255
 C        -1.684315         2.376245         2.300181
 C        -0.740266         2.033132         1.090781
 H        -0.136954        -1.027263         0.722396
 H        -2.526936         0.061861        -0.667863
 H        -2.659919         0.142432         1.182261
 H        -2.377776         2.407420        -1.954688
 H        -1.437246         3.646288        -1.441801
 H        -0.661841         0.627168        -1.953003
 H         0.342890         1.907621        -1.565798
 H        -1.395814         3.213127         2.867201
 H        -2.000398         1.489941         2.980857
 H         0.021228         2.743589         0.903999
