19
Iteration:  2078
 O         0.280421        -0.224416         0.451023
 C        -0.702176         0.809173         0.184840
 C        -2.188775         0.623379         0.366934
 C        -2.122378         2.132793         0.213430
 C        -1.891073         2.374398        -1.220616
 C        -0.665044         1.380801        -1.262111
 O        -2.732812         2.680810         1.425317
 C        -1.568800         2.372053         2.194005
 C        -0.736086         2.100701         0.964999
 H         0.022907        -0.812239         1.200941
 H        -2.722460         0.190303        -0.409215
 H        -2.404135         0.114223         1.312027
 H        -2.764053         2.208319        -1.896157
 H        -1.574927         3.374345        -1.288457
 H        -0.849053         0.529575        -1.939515
 H         0.313568         1.752446        -1.501762
 H        -1.133301         3.259122         2.690140
 H        -1.841518         1.520472         2.897958
 H         0.105034         2.691642         0.752033
