19
Iteration:  3850charge 0 multiplicity 1
 O         0.222440        -0.439001         0.253916
 C        -0.584868         0.753165         0.200112
 C        -2.168750         0.614247         0.252142
 C        -2.079102         2.138128         0.310881
 C        -1.775358         2.556117        -1.063911
 C        -0.597056         1.449363        -1.173745
 O        -2.863276         2.669236         1.314794
 C        -1.728808         2.311646         2.260971
 C        -0.766464         2.119965         1.097920
 H         1.077269        -0.055931         0.538001
 H        -2.586768         0.213553        -0.730756
 H        -2.466530         0.114342         1.182844
 H        -2.705264         2.431015        -1.622706
 H        -1.169291         3.592388        -1.228751
 H        -0.718762         0.587469        -1.801284
 H         0.280011         2.033440        -1.459007
 H        -1.464352         3.221821         2.727766
 H        -2.094484         1.607757         3.052047
 H        -0.081027         2.892803         0.765451
