19
Iteration:  4653
 O         0.398137        -0.271420         0.405385
 C        -0.626886         0.736479         0.175009
 C        -2.185161         0.447591         0.271777
 C        -2.145497         2.105976         0.270103
 C        -1.697157         2.540510        -1.038047
 C        -0.662218         1.453678        -1.299702
 O        -2.785496         2.823267         1.323764
 C        -1.820346         2.321587         2.266686
 C        -0.865429         2.001542         1.063686
 H         0.713077        -0.694170        -0.427033
 H        -2.557014         0.129356        -0.652225
 H        -2.636418         0.144369         1.253897
 H        -2.551756         2.744024        -1.704323
 H        -1.236075         3.513048        -0.933614
 H        -0.977107         0.794778        -2.095732
 H         0.339999         1.846011        -1.503040
 H        -1.389634         2.985655         3.109840
 H        -2.165508         1.465015         2.820072
 H         0.109782         2.600588         1.092681
