19
Iteration:  1222
 O         0.382364        -0.144124         0.351004
 C        -0.643459         0.768491         0.187831
 C        -2.207806         0.479467         0.380504
 C        -2.128577         2.114920         0.259260
 C        -1.755148         2.436756        -1.191692
 C        -0.696245         1.353105        -1.270978
 O        -2.738300         2.808241         1.381027
 C        -1.748337         2.336552         2.215885
 C        -0.796584         2.047865         1.040298
 H         0.453419        -0.736787         1.094889
 H        -3.017138         0.109609        -0.285961
 H        -2.502125         0.151502         1.403434
 H        -2.524787         2.220866        -1.999437
 H        -1.364785         3.435128        -1.269847
 H        -0.921242         0.486170        -1.992084
 H         0.297570         1.559101        -1.516809
 H        -1.525632         3.157468         2.897737
 H        -2.053487         1.474142         2.759515
 H        -0.007439         2.725949         0.876762
