19
Iteration:   248
 O         0.367332        -0.071400         0.530304
 C        -0.693843         0.755742         0.128477
 C        -2.145655         0.477063         0.513556
 C        -2.192581         2.102175         0.240143
 C        -1.930127         2.438474        -1.239196
 C        -0.760921         1.255627        -1.347095
 O        -2.723959         2.745875         1.392024
 C        -1.507621         2.374112         2.156827
 C        -0.773249         2.096468         0.885221
 H         0.091133        -0.632509         1.267306
 H        -2.768609        -0.334588         0.033537
 H        -2.301118         0.319867         1.586802
 H        -2.799972         2.341805        -1.927827
 H        -1.501438         3.450777        -1.248914
 H        -1.086716         0.433952        -2.088993
 H         0.179911         1.709047        -1.593026
 H        -1.100351         3.275517         2.704968
 H        -1.698420         1.567478         2.941800
 H         0.162645         2.734194         0.646272
