19
Iteration:  3659
 O         0.243844        -0.393226         0.350005
 C        -0.612557         0.779654         0.276043
 C        -2.140488         0.600967         0.307567
 C        -2.169277         2.167476         0.202248
 C        -1.748412         2.588270        -1.207961
 C        -0.657196         1.548357        -1.270744
 O        -2.850898         2.718270         1.409273
 C        -1.709869         2.175359         2.244931
 C        -0.708271         2.018305         1.074362
 H         1.062551        -0.193381         0.841481
 H        -2.466167        -0.002349        -0.488175
 H        -2.514672         0.108184         1.147008
 H        -2.461512         2.565916        -2.145747
 H        -1.312357         3.536482        -0.975690
 H        -0.896274         0.714161        -1.978320
 H         0.284104         2.005759        -1.539476
 H        -1.570497         3.008904         2.937402
 H        -2.056150         1.266180         2.595244
 H         0.009674         2.889391         1.078406
