19
Iteration:  1744charge 0 multiplicity 1
 O         0.382695        -0.268278         0.343906
 C        -0.668401         0.702313         0.161473
 C        -2.228703         0.507418         0.367464
 C        -2.134274         2.189058         0.284289
 C        -1.848080         2.352084        -1.217643
 C        -0.662878         1.332714        -1.169310
 O        -2.756192         2.975126         1.294557
 C        -1.703180         2.387086         2.280551
 C        -0.752116         2.040371         1.109119
 H         0.925837        -0.385020        -0.467747
 H        -2.721330        -0.118699        -0.375918
 H        -2.381469         0.094498         1.375158
 H        -2.707937         1.843182        -1.738187
 H        -1.810218         3.297880        -1.551566
 H        -0.665232         0.494386        -1.891970
 H         0.220712         1.880106        -1.382016
 H        -1.353757         2.912942         3.094123
 H        -2.195765         1.461651         2.798814
 H         0.058140         2.735091         1.271098
