19
Iteration:  4049charge 0 multiplicity 1
 O         0.230714        -0.279049         0.403078
 C        -0.592659         0.791552         0.153869
 C        -2.093934         0.524285         0.175795
 C        -2.096988         2.115919         0.243225
 C        -1.782665         2.564686        -1.075611
 C        -0.653097         1.504801        -1.240450
 O        -2.820218         2.766734         1.348801
 C        -1.715761         2.232232         2.300599
 C        -0.796281         1.988724         1.021596
 H         0.377025        -0.585682         1.314729
 H        -2.538298        -0.007733        -0.694463
 H        -2.429326        -0.093283         1.065807
 H        -2.614314         2.385973        -1.781970
 H        -1.401637         3.625266        -1.259379
 H        -0.854888         0.772574        -1.989797
 H         0.285833         2.000100        -1.522358
 H        -1.210848         2.926642         2.965868
 H        -1.898816         1.361320         2.922465
 H        -0.089612         2.793586         1.133749
