19
Iteration:   906charge 0 multiplicity 1
 O         0.211085        -0.345131         0.397518
 C        -0.652139         0.727871         0.211591
 C        -2.160952         0.508638         0.271485
 C        -2.094808         1.995727         0.294312
 C        -1.943888         2.329535        -1.212366
 C        -0.578312         1.470453        -1.210954
 O        -2.804261         2.737671         1.385849
 C        -1.615203         2.564533         2.219375
 C        -0.713893         2.134898         1.038025
 H         1.089386         0.000862         0.581543
 H        -2.517449        -0.081664        -0.595270
 H        -2.580616         0.099059         1.227975
 H        -2.774362         1.909699        -1.810880
 H        -1.929955         3.379035        -1.470781
 H        -0.469453         0.783771        -2.088238
 H         0.222788         2.146029        -1.142170
 H        -1.335303         3.547356         2.686212
 H        -1.684410         1.820438         3.089212
 H        -0.005808         2.971746         0.790632
