19
Iteration:  1567charge 0 multiplicity 1
 O         0.320173        -0.257988         0.420653
 C        -0.659401         0.713155         0.215735
 C        -2.207085         0.529366         0.303102
 C        -2.088770         2.061421         0.300438
 C        -1.788405         2.407470        -1.106070
 C        -0.607702         1.411432        -1.231011
 O        -2.902070         2.771482         1.389504
 C        -1.615586         2.519470         2.149413
 C        -0.794466         1.982359         1.036585
 H         0.681716        -0.536609        -0.439412
 H        -2.704772        -0.021506        -0.473553
 H        -2.550775         0.131902         1.268019
 H        -2.781804         2.243059        -1.667719
 H        -1.436191         3.437648        -1.343596
 H        -0.697924         0.616186        -1.971711
 H         0.268269         2.081950        -1.482922
 H        -1.243227         3.541603         2.591872
 H        -1.709886         1.820260         3.025230
 H         0.036830         2.616701         0.660840
