19
Iteration:  1772
 O         0.263660        -0.277744         0.499331
 C        -0.656644         0.712915         0.178188
 C        -2.207306         0.489273         0.377306
 C        -2.135080         2.040575         0.306933
 C        -1.800462         2.437361        -1.149985
 C        -0.645346         1.389511        -1.292727
 O        -2.771877         2.809269         1.340177
 C        -1.623458         2.455295         2.224517
 C        -0.783627         2.095928         0.945348
 H         0.907192        -0.403412        -0.252395
 H        -2.730323         0.016403        -0.481278
 H        -2.403848         0.023041         1.320085
 H        -2.631989         2.266626        -1.822439
 H        -1.628494         3.581691        -1.143303
 H        -0.814026         0.569185        -1.999870
 H         0.336175         1.889982        -1.555007
 H        -1.168051         3.128341         3.018307
 H        -1.948502         1.635542         2.828589
 H        -0.146963         2.983054         0.725201
