19
Iteration:  2743
 O         0.431630        -0.241871         0.229104
 C        -0.700478         0.702331         0.127954
 C        -2.204803         0.532750         0.407304
 C        -2.141664         2.115213         0.313900
 C        -1.786318         2.327423        -1.178934
 C        -0.699969         1.301542        -1.333871
 O        -2.803378         2.919557         1.425993
 C        -1.668464         2.452384         2.322494
 C        -0.764601         2.011369         1.045506
 H         0.514640        -0.446997         1.172867
 H        -2.884132        -0.156463        -0.215106
 H        -2.451429         0.224055         1.369812
 H        -2.640611         2.371168        -1.897576
 H        -1.441126         3.382977        -1.211132
 H        -1.002608         0.525365        -1.986261
 H         0.270802         1.674790        -1.795854
 H        -1.315663         3.400446         2.855998
 H        -1.901024         1.643083         3.033451
 H        -0.181017         2.871169         0.871264
