19
Iteration:  3550charge 0 multiplicity 1
 O         0.159225        -0.422142         0.273726
 C        -0.558093         0.767785         0.116094
 C        -2.051025         0.573376         0.289134
 C        -2.110889         2.182526         0.298728
 C        -1.737079         2.506001        -1.153119
 C        -0.546149         1.542060        -1.222134
 O        -2.894354         2.694644         1.401143
 C        -1.836672         2.321176         2.335271
 C        -0.742280         2.078597         1.104229
 H         1.004446        -0.477089        -0.212601
 H        -2.603651         0.087694        -0.457107
 H        -2.312369         0.266752         1.247467
 H        -2.552996         2.110371        -1.867706
 H        -1.519315         3.559589        -1.377239
 H        -0.636262         0.737867        -1.981039
 H         0.442656         1.901052        -1.220001
 H        -1.682558         3.150537         3.033180
 H        -2.070928         1.453620         2.921673
 H         0.089813         2.833089         1.036143
