19
Iteration:   744charge 0 multiplicity 1
 O         0.332185        -0.326964         0.263888
 C        -0.621696         0.695206         0.177940
 C        -2.102641         0.561219         0.481647
 C        -2.093797         2.107887         0.358554
 C        -1.944221         2.353687        -1.190685
 C        -0.693210         1.318571        -1.213871
 O        -2.847262         2.767403         1.265952
 C        -1.671188         2.591493         2.212625
 C        -0.699669         2.010984         1.067160
 H         1.042689         0.009357         0.863505
 H        -2.831377         0.003888        -0.065190
 H        -2.316048         0.336791         1.521925
 H        -2.833902         2.313907        -1.921585
 H        -1.602111         3.371925        -1.263634
 H        -0.781760         0.502223        -2.020439
 H         0.298679         1.844570        -1.405014
 H        -1.464763         3.658332         2.348940
 H        -2.058535         2.096388         3.049514
 H         0.123316         2.782166         0.825330
