19
Iteration:  2783
 O         0.159920        -0.396736         0.397973
 C        -0.599179         0.753735         0.246501
 C        -2.159137         0.539196         0.333056
 C        -2.088059         2.044909         0.341132
 C        -1.920332         2.383299        -1.159597
 C        -0.682138         1.505388        -1.306301
 O        -2.804268         2.775286         1.328671
 C        -1.541271         2.434195         2.244740
 C        -0.702416         2.152854         1.014131
 H         1.072184        -0.055492         0.593959
 H        -2.655022        -0.000764        -0.485862
 H        -2.360984         0.218800         1.398440
 H        -2.799138         2.045766        -1.757125
 H        -1.694214         3.448390        -1.472904
 H        -0.688700         0.600645        -2.040287
 H         0.208979         2.080560        -1.571054
 H        -1.389732         3.192994         2.985063
 H        -1.669417         1.484649         2.852798
 H         0.008757         2.806674         0.447828
