19
Iteration:  4935
 O         0.282932        -0.329295         0.272865
 C        -0.605253         0.695417         0.211003
 C        -2.157562         0.544765         0.165339
 C        -2.176598         2.112044         0.254668
 C        -1.714050         2.491325        -1.170537
 C        -0.450144         1.514288        -1.089070
 O        -2.883568         2.784674         1.420920
 C        -1.811704         2.292418         2.323130
 C        -0.871365         2.046382         1.092631
 H         1.071266        -0.172249        -0.292472
 H        -2.608984         0.100639        -0.702136
 H        -2.643732         0.051947         1.085505
 H        -2.326415         2.446036        -2.091637
 H        -1.270392         3.504414        -1.132848
 H        -0.500163         0.731687        -1.964272
 H         0.502550         2.027058        -1.050758
 H        -1.461242         3.049919         3.104968
 H        -2.159600         1.432268         2.873575
 H        -0.142599         2.824394         0.766653
