19
Iteration:  2738charge 0 multiplicity 1
 O         0.449565        -0.215288         0.239218
 C        -0.675995         0.695377         0.088222
 C        -2.261299         0.469357         0.404771
 C        -2.169228         2.126032         0.339019
 C        -1.769112         2.324833        -1.165410
 C        -0.685316         1.283909        -1.331619
 O        -2.776842         2.916668         1.413378
 C        -1.632968         2.452843         2.324597
 C        -0.800498         2.068307         1.037319
 H         0.417686        -0.594978         1.148517
 H        -2.810179        -0.070200        -0.344872
 H        -2.612610         0.178857         1.476010
 H        -2.626348         2.320724        -1.838319
 H        -1.492682         3.399829        -1.153525
 H        -1.136251         0.599150        -2.161066
 H         0.278952         1.542027        -1.706773
 H        -1.238606         3.281430         2.858937
 H        -2.071908         1.738730         3.067170
 H        -0.111043         2.984294         0.979915
