19
Iteration:  4637
 O         0.310009        -0.250426         0.541685
 C        -0.641006         0.703156         0.151452
 C        -2.160053         0.479428         0.287752
 C        -2.130943         2.094846         0.280798
 C        -1.767000         2.652225        -1.143874
 C        -0.606897         1.548067        -1.340637
 O        -2.816764         2.823043         1.360113
 C        -1.739674         2.194626         2.234446
 C        -0.765889         1.952908         1.049248
 H         0.460270        -0.732727        -0.325782
 H        -2.760184        -0.217943        -0.446434
 H        -2.320658         0.128759         1.288704
 H        -2.454012         2.401274        -1.981225
 H        -1.290875         3.680184        -1.021793
 H        -0.987192         0.750117        -2.059745
 H         0.429601         1.877067        -1.620913
 H        -1.436558         2.950754         2.977698
 H        -2.114235         1.277607         2.854189
 H        -0.260321         2.870667         0.823275
