19
Iteration:  1058charge 0 multiplicity 1
 O         0.324414        -0.223984         0.322869
 C        -0.662544         0.762995         0.222908
 C        -2.122479         0.558920         0.314833
 C        -2.103165         2.167543         0.230598
 C        -1.789897         2.380842        -1.189598
 C        -0.572088         1.333824        -1.276967
 O        -2.889789         2.721656         1.457997
 C        -1.699011         2.458713         2.255633
 C        -0.785313         2.064433         1.026550
 H         0.192465        -0.591866         1.220314
 H        -2.575998         0.075384        -0.595027
 H        -2.510859         0.020879         1.233377
 H        -2.625366         2.058970        -1.827766
 H        -1.514459         3.439172        -1.387291
 H        -0.767758         0.504072        -2.064710
 H         0.387950         1.760661        -1.543594
 H        -1.430029         3.341680         2.855633
 H        -1.827119         1.536943         2.838959
 H        -0.049619         2.813886         0.905823
