19
Iteration:   680
 O         0.364695        -0.151443         0.599802
 C        -0.692805         0.701459         0.193854
 C        -2.161020         0.445459         0.430701
 C        -2.198271         2.179970         0.264919
 C        -1.983494         2.337034        -1.293752
 C        -0.687926         1.385589        -1.363474
 O        -2.745968         2.827802         1.399008
 C        -1.516285         2.407064         2.218844
 C        -0.707293         2.122618         0.910629
 H         0.019931        -1.057246         0.760696
 H        -2.630433        -0.043893        -0.384651
 H        -2.447459         0.115341         1.421061
 H        -2.785255         1.844389        -2.002904
 H        -1.879913         3.338330        -1.565000
 H        -0.770904         0.384060        -1.960369
 H         0.317725         1.715840        -1.836789
 H        -1.222150         3.220395         3.034776
 H        -1.764036         1.456687         2.683469
 H         0.052709         2.914018         0.674128
