19
Iteration:  4452charge 0 multiplicity 1
 O         0.235788        -0.294159         0.409683
 C        -0.634430         0.784258         0.170915
 C        -2.135750         0.560363         0.183068
 C        -2.137428         2.073756         0.313418
 C        -1.745413         2.491378        -1.122368
 C        -0.531306         1.506543        -1.349495
 O        -2.823905         2.690222         1.407612
 C        -1.689510         2.308724         2.291489
 C        -0.777440         2.087907         1.027143
 H        -0.312757        -0.912807         0.948021
 H        -2.746642         0.210075        -0.674254
 H        -2.509671         0.074020         1.063678
 H        -2.650190         2.437138        -1.773106
 H        -1.281438         3.499882        -0.870031
 H        -1.015116         0.779529        -2.085079
 H         0.478787         1.848470        -1.463339
 H        -1.351218         3.205268         2.746015
 H        -1.912347         1.503547         3.065683
 H        -0.050867         2.906833         0.931467
