19
Iteration:  3184
 O         0.161393        -0.320079         0.375909
 C        -0.646019         0.811971         0.147423
 C        -2.186432         0.607316         0.325079
 C        -2.102656         2.136174         0.273678
 C        -1.763424         2.472002        -1.254628
 C        -0.471444         1.511027        -1.249368
 O        -2.844789         2.667992         1.460642
 C        -1.704732         2.257108         2.300759
 C        -0.761261         2.073213         1.043045
 H         0.686779        -0.623725        -0.374524
 H        -2.867130        -0.063269        -0.286394
 H        -2.253845         0.420058         1.324039
 H        -2.589485         2.055011        -1.857746
 H        -1.627650         3.560610        -1.415381
 H        -0.685915         0.799891        -2.086225
 H         0.499383         1.924717        -1.379610
 H        -1.281973         3.149769         2.740537
 H        -1.872782         1.583036         3.084073
 H        -0.028866         2.844237         0.978860
