19
Iteration:  3100charge 0 multiplicity 1
 O         0.361926        -0.207268         0.325033
 C        -0.634560         0.754069         0.183786
 C        -2.267855         0.608326         0.238776
 C        -2.184587         2.084894         0.263153
 C        -1.783528         2.485238        -1.151647
 C        -0.627660         1.400321        -1.215467
 O        -2.792391         2.771881         1.428093
 C        -1.591007         2.270413         2.277578
 C        -0.816769         2.017065         1.011781
 H         0.315388        -0.528430         1.257531
 H        -2.906475         0.165244        -0.605348
 H        -2.565697         0.135851         1.135342
 H        -2.531726         2.243017        -1.874669
 H        -1.501937         3.576786        -1.215483
 H        -0.933159         0.659429        -1.966853
 H         0.374302         1.861583        -1.479198
 H        -1.128934         2.999606         2.954274
 H        -1.977169         1.309985         2.761196
 H         0.036362         2.748468         0.823246
