19
Iteration:  3182
 O         0.155027        -0.320532         0.365004
 C        -0.633702         0.797796         0.136826
 C        -2.189951         0.610320         0.312062
 C        -2.103930         2.155350         0.294051
 C        -1.758902         2.459177        -1.246670
 C        -0.480839         1.514663        -1.250470
 O        -2.850353         2.666152         1.442930
 C        -1.694269         2.258677         2.307152
 C        -0.764224         2.084064         1.060410
 H         0.718221        -0.601903        -0.361775
 H        -2.816750        -0.070067        -0.256344
 H        -2.254606         0.376249         1.390987
 H        -2.658914         2.077685        -1.903086
 H        -1.613567         3.516533        -1.455673
 H        -0.649571         0.762491        -2.070556
 H         0.545043         1.875325        -1.378647
 H        -1.322092         3.184128         2.825001
 H        -1.855562         1.565925         3.106351
 H        -0.045278         2.866511         0.959418
