19
Iteration:  4430
 O         0.339191        -0.258563         0.222451
 C        -0.672846         0.704471         0.243293
 C        -2.183350         0.592600         0.241642
 C        -2.112196         2.232961         0.321504
 C        -1.719054         2.569276        -1.226121
 C        -0.573985         1.366337        -1.152142
 O        -2.862781         2.666725         1.408441
 C        -1.729652         2.383812         2.253846
 C        -0.782965         1.976913         1.119408
 H        -0.014972        -1.045000         0.648904
 H        -2.693082        -0.036126        -0.508644
 H        -2.531133         0.277221         1.222082
 H        -2.544213         2.285325        -1.904893
 H        -1.173607         3.577056        -1.382803
 H        -0.880898         0.777964        -2.031645
 H         0.351424         1.927429        -1.235422
 H        -1.512848         3.248990         2.799059
 H        -1.892522         1.467785         2.905182
 H        -0.020928         2.719083         0.913070
