19
Iteration:   908
 O         0.204647        -0.343879         0.406102
 C        -0.645606         0.733951         0.209059
 C        -2.144613         0.500831         0.268600
 C        -2.102431         2.004405         0.304908
 C        -1.929514         2.330564        -1.215812
 C        -0.590311         1.451764        -1.202268
 O        -2.801220         2.739282         1.384752
 C        -1.615661         2.556968         2.227643
 C        -0.724964         2.132225         1.017545
 H         1.093595         0.021932         0.549767
 H        -2.521227        -0.027431        -0.590862
 H        -2.573479         0.083361         1.195582
 H        -2.818934         1.930441        -1.827668
 H        -1.909631         3.370822        -1.426099
 H        -0.453029         0.820855        -2.098343
 H         0.194820         2.184131        -1.120576
 H        -1.279053         3.557066         2.699165
 H        -1.694119         1.797469         3.026079
 H        -0.042836         3.041851         0.763708
