19
Iteration:   630charge 0 multiplicity 1
 O         0.326487        -0.259899         0.458369
 C        -0.594418         0.744478         0.187268
 C        -2.185313         0.417505         0.404911
 C        -2.204670         1.997528         0.248744
 C        -1.862967         2.317379        -1.254114
 C        -0.677767         1.282666        -1.269624
 O        -2.786573         2.864476         1.445269
 C        -1.576068         2.629525         2.265398
 C        -0.806592         2.174822         0.940521
 H         0.648284        -0.627395        -0.392052
 H        -2.836858        -0.314821        -0.187704
 H        -2.166189         0.141897         1.516326
 H        -2.627211         2.068293        -1.947035
 H        -1.621687         3.437735        -1.450408
 H        -0.845305         0.500812        -1.979001
 H         0.327789         1.589800        -1.525607
 H        -1.263567         3.540136         2.740777
 H        -1.679702         1.818451         3.031216
 H        -0.262601         3.054638         0.605540
