19
Iteration:   978charge 0 multiplicity 1
 O         0.461682        -0.107900         0.400827
 C        -0.629743         0.735598         0.264015
 C        -2.178163         0.521183         0.291710
 C        -2.138745         2.116394         0.291824
 C        -1.826173         2.437298        -1.142683
 C        -0.688554         1.238643        -1.279963
 O        -2.890978         2.856906         1.359238
 C        -1.689219         2.389182         2.219457
 C        -0.713435         1.964567         1.087396
 H         0.450542        -0.858353        -0.206541
 H        -2.682828         0.170279        -0.621983
 H        -2.657961         0.242431         1.222065
 H        -2.614180         2.201491        -1.834960
 H        -1.547220         3.507916        -1.485531
 H        -1.160943         0.429907        -1.816739
 H         0.401379         1.591787        -1.502206
 H        -1.311424         3.150630         2.814063
 H        -2.179472         1.632429         2.848175
 H        -0.035161         2.767381         0.788383
