19
Iteration:  1270
 O         0.206404        -0.335407         0.453391
 C        -0.642897         0.725812         0.191242
 C        -2.126475         0.493358         0.214489
 C        -2.110583         2.039241         0.296158
 C        -1.902383         2.401511        -1.233930
 C        -0.646768         1.505180        -1.233300
 O        -2.764420         2.772196         1.379479
 C        -1.695067         2.483139         2.297113
 C        -0.704564         2.075064         1.042460
 H         1.040946         0.169247         0.652516
 H        -2.268103        -0.212501        -0.653996
 H        -2.538191        -0.039376         1.081197
 H        -2.711708         2.197736        -1.895995
 H        -1.598767         3.479356        -1.190085
 H        -0.690984         0.712347        -1.967171
 H         0.384644         1.961182        -1.512992
 H        -1.393378         3.324881         2.990301
 H        -2.048382         1.585429         2.783576
 H         0.109287         2.795159         0.638799
