19
Iteration:  3063
 O         0.229748        -0.270741         0.403712
 C        -0.619849         0.801024         0.096430
 C        -2.118187         0.610951         0.311579
 C        -2.059922         2.100105         0.319880
 C        -1.847576         2.445324        -1.130263
 C        -0.602890         1.493326        -1.312765
 O        -2.844061         2.699256         1.392815
 C        -1.657818         2.290213         2.259324
 C        -0.704667         2.092375         1.027988
 H        -0.277808        -1.106753         0.419858
 H        -2.832124         0.131619        -0.358167
 H        -2.173851         0.254179         1.383069
 H        -2.597740         2.118504        -1.892968
 H        -1.774865         3.490306        -1.353631
 H        -0.852660         0.672873        -2.022071
 H         0.373381         1.833638        -1.564642
 H        -1.448895         3.094787         2.986778
 H        -1.872198         1.433802         2.899483
 H         0.040086         2.870925         1.029844
