19
Iteration:  2266charge 0 multiplicity 1
 O         0.418944        -0.301969         0.320701
 C        -0.653812         0.706925         0.235685
 C        -2.171581         0.470540         0.454696
 C        -2.148256         2.135507         0.320148
 C        -1.882480         2.434517        -1.123820
 C        -0.749808         1.400860        -1.253859
 O        -2.791923         2.860808         1.237473
 C        -1.660608         2.448099         2.275703
 C        -0.667820         2.021299         0.988972
 H         0.104834        -1.052901        -0.204207
 H        -2.771046        -0.021601        -0.309514
 H        -2.551210         0.107180         1.440701
 H        -2.770284         2.349954        -1.770063
 H        -1.569459         3.520195        -1.153677
 H        -0.787093         0.623485        -1.991740
 H         0.308709         1.792306        -1.333059
 H        -1.111793         3.345564         2.808285
 H        -2.090194         1.682709         2.946494
 H        -0.155578         2.947058         1.000885
