19
Iteration:   811charge 0 multiplicity 1
 O         0.396578        -0.072242         0.624678
 C        -0.699663         0.689804         0.158133
 C        -2.211922         0.581183         0.402842
 C        -2.040665         2.129284         0.255409
 C        -1.908083         2.349591        -1.217240
 C        -0.723649         1.366970        -1.392087
 O        -2.783490         2.775299         1.344792
 C        -1.660934         2.344665         2.259749
 C        -0.666904         2.016858         0.983218
 H         0.309446        -0.897449         0.109750
 H        -2.888432         0.253720        -0.335525
 H        -2.563240         0.182696         1.364035
 H        -2.792865         1.881097        -1.832371
 H        -1.741209         3.287439        -1.680896
 H        -1.141430         0.641614        -2.159234
 H         0.362402         1.721031        -1.567705
 H        -1.223333         3.222632         2.848052
 H        -1.772527         1.471142         2.842270
 H         0.010588         2.901807         0.649525
