19
Iteration:  1925
 O         0.245902        -0.341585         0.461634
 C        -0.674537         0.712068         0.145098
 C        -2.206885         0.568804         0.385823
 C        -2.101443         2.142784         0.226024
 C        -1.805107         2.476621        -1.201972
 C        -0.651141         1.394029        -1.284589
 O        -2.901279         2.653403         1.527950
 C        -1.573401         2.496134         2.142466
 C        -0.685337         2.090194         0.891576
 H         0.483927        -0.157556         1.367554
 H        -2.624631        -0.145188        -0.275994
 H        -2.450754         0.255728         1.390509
 H        -2.568743         2.310108        -1.959857
 H        -1.487382         3.519552        -1.318741
 H        -0.864694         0.712116        -2.109876
 H         0.324399         1.812452        -1.515761
 H        -1.029072         3.371837         2.562310
 H        -1.676976         1.682588         2.802971
 H         0.165099         2.720778         0.710482
