19
Iteration:  3392charge 0 multiplicity 1
 O         0.267448        -0.268974         0.326552
 C        -0.644181         0.720684         0.192831
 C        -2.207353         0.509427         0.248791
 C        -2.044108         2.164918         0.287366
 C        -1.744340         2.584679        -1.070043
 C        -0.633458         1.477344        -1.241131
 O        -2.792681         2.764806         1.324852
 C        -1.804785         2.298822         2.276384
 C        -0.778090         1.894256         1.131089
 H         1.103906        -0.113064        -0.131659
 H        -2.568086        -0.009307        -0.659951
 H        -2.277799         0.147452         1.271958
 H        -2.503472         2.257815        -1.804134
 H        -1.328646         3.615570        -1.289497
 H        -0.964846         0.769766        -1.997679
 H         0.316355         1.999024        -1.515547
 H        -1.570582         3.081134         3.016338
 H        -2.020010         1.430376         2.917580
 H        -0.093210         2.729461         1.007635
