19
Iteration:  4536
 O         0.382558        -0.314716         0.138762
 C        -0.602982         0.749162         0.225069
 C        -2.110528         0.482523         0.306483
 C        -2.104803         2.081743         0.312772
 C        -1.686904         2.578876        -1.117712
 C        -0.674580         1.433039        -1.216355
 O        -2.837157         2.841831         1.323931
 C        -1.851689         2.356712         2.284766
 C        -0.826949         1.967476         1.132811
 H         0.211935        -0.766384         0.971461
 H        -2.503305        -0.070270        -0.552563
 H        -2.559948         0.234735         1.336456
 H        -2.616499         2.578759        -1.653149
 H        -1.200404         3.648158        -1.120188
 H        -0.844643         0.678819        -1.958910
 H         0.401151         1.836513        -1.419962
 H        -1.441141         3.010732         3.022490
 H        -2.372990         1.547374         2.931412
 H        -0.076481         2.720323         1.031501
