19
Iteration:  2726charge 0 multiplicity 1
 O         0.428103        -0.145511         0.275605
 C        -0.637757         0.687580         0.170732
 C        -2.276120         0.450249         0.373896
 C        -2.142992         2.049869         0.354853
 C        -1.852545         2.481841        -1.078038
 C        -0.709444         1.232582        -1.287410
 O        -2.708718         2.902912         1.376401
 C        -1.624766         2.448289         2.266563
 C        -0.842895         2.087136         0.981561
 H         0.163024        -0.852491         0.882041
 H        -2.805101         0.106490        -0.488972
 H        -2.596303        -0.141070         1.325164
 H        -2.559499         2.140900        -1.796564
 H        -1.351753         3.398136        -1.378625
 H        -0.967119         0.357167        -2.024375
 H         0.255567         1.659502        -1.477656
 H        -1.122999         3.198097         2.838932
 H        -2.018773         1.625442         2.907403
 H        -0.043217         2.797195         0.532064
