19
Iteration:  2606charge 0 multiplicity 1
 O         0.401753        -0.132388         0.435865
 C        -0.649897         0.698483         0.158069
 C        -2.181401         0.498654         0.418561
 C        -2.154385         2.055330         0.276812
 C        -1.890313         2.433763        -1.111017
 C        -0.773690         1.252678        -1.345623
 O        -2.709425         2.951386         1.393949
 C        -1.645845         2.380436         2.233911
 C        -0.751043         1.967665         0.963193
 H         0.755906        -0.681301        -0.295022
 H        -2.745813        -0.043985        -0.236057
 H        -2.606854         0.272265         1.363901
 H        -2.652180         2.361148        -1.859068
 H        -1.595884         3.485505        -1.048564
 H        -1.252426         0.564468        -2.094330
 H         0.024800         1.737195        -1.843395
 H        -1.099473         3.082561         2.835061
 H        -1.997194         1.613975         2.912859
 H         0.076440         2.713597         1.004835
