19
Iteration:   590
 O         0.388047        -0.277956         0.376736
 C        -0.667071         0.698827         0.205163
 C        -2.187102         0.505514         0.509709
 C        -2.038584         2.070708         0.318580
 C        -1.976059         2.350073        -1.140209
 C        -0.798800         1.302616        -1.232013
 O        -2.733868         2.831747         1.192672
 C        -1.682898         2.539157         2.162182
 C        -0.644046         2.107214         1.102349
 H         1.053029         0.059287        -0.243267
 H        -2.845066        -0.074123        -0.085137
 H        -2.409114         0.446862         1.540152
 H        -2.856551         1.946094        -1.601765
 H        -1.744516         3.399708        -1.420789
 H        -1.058137         0.422142        -1.843678
 H         0.124130         1.784013        -1.674385
 H        -1.471865         3.435385         2.792240
 H        -2.025129         1.748105         2.824851
 H         0.126308         2.726612         0.631101
