19
Iteration:  4579
 O         0.266610        -0.270179         0.380311
 C        -0.643291         0.714633         0.157018
 C        -2.142275         0.549265         0.183976
 C        -2.116902         2.152879         0.246682
 C        -1.802536         2.486670        -1.176943
 C        -0.516303         1.514794        -1.211224
 O        -2.871278         2.714517         1.482084
 C        -1.709741         2.293208         2.287159
 C        -0.768319         2.023174         1.044706
 H        -0.246596        -1.078610         0.368001
 H        -2.618401        -0.022393        -0.634095
 H        -2.525491         0.209301         1.216393
 H        -2.421075         2.428669        -2.052615
 H        -1.458719         3.521163        -1.321195
 H        -0.432106         0.840601        -2.039976
 H         0.460815         2.183453        -1.271353
 H        -1.325415         3.223314         2.656479
 H        -1.840659         1.539023         3.114202
 H        -0.108045         2.874238         0.932337
