19
Iteration:  4748
 O         0.308262        -0.221046         0.591834
 C        -0.649364         0.782172         0.072079
 C        -2.207589         0.493870         0.105427
 C        -2.061616         2.126639         0.279547
 C        -1.806871         2.603481        -1.159050
 C        -0.584855         1.501418        -1.267595
 O        -2.798292         2.711431         1.400300
 C        -1.688064         2.208463         2.279768
 C        -0.809044         2.004683         1.070336
 H        -0.051024        -1.056846         0.281934
 H        -2.624192         0.207492        -0.853368
 H        -2.672589         0.278693         1.035990
 H        -2.458951         2.428770        -2.033276
 H        -1.341934         3.573576        -1.284662
 H        -0.741308         0.760381        -2.143681
 H         0.346962         1.983441        -1.330278
 H        -1.469055         2.897970         3.082541
 H        -2.033599         1.341617         2.861523
 H        -0.002342         2.738347         1.089750
