19
Iteration:  2958
 O         0.175375        -0.331698         0.457933
 C        -0.571877         0.763194         0.201314
 C        -2.096887         0.519101         0.336592
 C        -2.158903         2.069504         0.280461
 C        -1.900439         2.485675        -1.134824
 C        -0.668820         1.423615        -1.330840
 O        -2.810814         2.804219         1.428661
 C        -1.619219         2.336991         2.164306
 C        -0.687624         2.091452         0.986808
 H         1.123507        -0.064834         0.407191
 H        -2.490305        -0.121591        -0.521640
 H        -2.407847         0.066599         1.220849
 H        -2.638220         2.468314        -1.877986
 H        -1.370788         3.459647        -1.006736
 H        -1.062967         0.677449        -2.035587
 H         0.287476         1.860757        -1.687423
 H        -1.505141         3.094418         2.902996
 H        -1.833067         1.340387         2.623850
 H        -0.077452         3.027575         0.886911
