19
Iteration:  1602
 O         0.320381        -0.217758         0.359521
 C        -0.649322         0.710649         0.229079
 C        -2.128918         0.479526         0.378072
 C        -2.075404         2.125153         0.315720
 C        -1.856303         2.350232        -1.195664
 C        -0.664591         1.394765        -1.260545
 O        -2.747888         2.918837         1.316273
 C        -1.754291         2.417268         2.257403
 C        -0.775734         2.002106         1.075565
 H         0.410313        -0.774692        -0.431936
 H        -2.683586        -0.169242        -0.315179
 H        -2.245952         0.157796         1.381658
 H        -2.850691         2.139953        -1.774009
 H        -1.514342         3.316945        -1.423024
 H        -0.462664         0.549625        -1.958348
 H         0.188240         2.042317        -1.284063
 H        -1.571712         3.203856         2.929768
 H        -2.112111         1.456883         2.813543
 H        -0.040199         2.757685         0.795194
