19
Iteration:  3887
 O         0.358889        -0.301442         0.405547
 C        -0.676825         0.755156         0.176256
 C        -2.199768         0.513536         0.241798
 C        -2.141498         2.103726         0.295138
 C        -1.766836         2.545048        -1.121105
 C        -0.577042         1.478571        -1.284495
 O        -2.757883         2.897808         1.392653
 C        -1.794712         2.202078         2.311495
 C        -0.892986         1.957995         1.012377
 H         1.123431        -0.291230        -0.192549
 H        -2.871118        -0.068329        -0.376274
 H        -2.291455         0.029773         1.236183
 H        -2.415026         2.424216        -1.997873
 H        -1.352055         3.504875        -1.234702
 H        -0.677820         0.712318        -2.046542
 H         0.380835         2.006829        -1.377268
 H        -1.058491         2.923931         2.856623
 H        -2.259452         1.394250         2.882304
 H        -0.185075         2.796094         1.044602
