19
Iteration:  4244charge 0 multiplicity 1
 O         0.359057        -0.345362         0.170773
 C        -0.624712         0.725873         0.213395
 C        -2.176308         0.559752         0.262575
 C        -2.180607         2.130361         0.368681
 C        -1.753906         2.440269        -1.182010
 C        -0.529372         1.465994        -1.180481
 O        -2.872468         2.858198         1.373557
 C        -1.734887         2.268542         2.326683
 C        -0.784390         2.117175         1.105045
 H        -0.179446        -0.932062         0.742060
 H        -2.774449         0.212223        -0.559934
 H        -2.695518         0.205683         1.205055
 H        -2.304285         2.103354        -2.000881
 H        -1.330018         3.439563        -1.401613
 H        -0.695064         0.638572        -1.915406
 H         0.457837         2.088630        -1.245763
 H        -1.382151         3.053137         2.887221
 H        -2.042490         1.264717         2.774973
 H        -0.008006         2.875288         0.973157
