19
Iteration:  4027charge 0 multiplicity 1
 O         0.297803        -0.248267         0.284748
 C        -0.665936         0.718986         0.151981
 C        -2.186189         0.466650         0.268414
 C        -2.129479         2.116784         0.283548
 C        -1.816200         2.556076        -1.160651
 C        -0.522896         1.432948        -1.223327
 O        -2.767825         2.868101         1.417225
 C        -1.805381         2.193469         2.268728
 C        -0.765233         2.060177         1.063399
 H         0.716020         0.000525         1.124042
 H        -2.740531        -0.063748        -0.538621
 H        -2.670096        -0.060135         1.131830
 H        -2.531751         2.369708        -1.971044
 H        -1.481928         3.660387        -1.233123
 H        -0.637682         0.705963        -1.993697
 H         0.473624         1.872879        -1.277836
 H        -1.510568         2.751805         3.148292
 H        -2.031418         1.177961         2.555469
 H         0.048595         2.776225         1.130812
