19
Iteration:  4982
 O         0.190951        -0.493311         0.352132
 C        -0.559702         0.770337         0.082302
 C        -2.074790         0.525047         0.304788
 C        -2.109255         2.127399         0.288658
 C        -1.776065         2.636533        -1.117920
 C        -0.476476         1.623118        -1.280504
 O        -2.877319         2.702190         1.286003
 C        -1.873372         2.296881         2.296965
 C        -0.799926         1.988806         1.164556
 H         1.093276        -0.153391         0.582177
 H        -2.592383         0.045847        -0.519258
 H        -2.223727        -0.010165         1.167628
 H        -2.556814         2.364624        -1.826918
 H        -1.631177         3.707295        -1.292079
 H        -0.369538         0.991838        -2.145927
 H         0.414577         2.280752        -1.018545
 H        -1.594235         3.219242         2.869565
 H        -2.220695         1.528793         3.013786
 H         0.107013         2.699064         1.225280
