19
Iteration:  1335
 O         0.341403        -0.227872         0.339997
 C        -0.678068         0.785819         0.259537
 C        -2.125950         0.535595         0.322199
 C        -2.085907         2.158998         0.256521
 C        -1.772714         2.376241        -1.154658
 C        -0.651396         1.370562        -1.175927
 O        -2.821034         2.802324         1.336691
 C        -1.752875         2.374640         2.263013
 C        -0.773215         2.020027         1.055500
 H         0.656080        -0.516784        -0.521877
 H        -2.624117        -0.029612        -0.494380
 H        -2.563859         0.123645         1.222141
 H        -2.540340         2.130406        -1.871320
 H        -1.426923         3.434421        -1.376186
 H        -1.034602         0.491014        -1.695366
 H         0.387188         1.569850        -1.551666
 H        -1.390416         3.232175         2.912188
 H        -2.148744         1.604295         2.845597
 H        -0.137433         2.957442         0.933845
