19
Iteration:  2413
 O         0.256149        -0.348144         0.276057
 C        -0.676261         0.720593         0.141920
 C        -2.193570         0.504748         0.410418
 C        -2.070753         2.084673         0.308941
 C        -1.907491         2.375497        -1.166415
 C        -0.594662         1.489423        -1.256039
 O        -2.819159         2.760666         1.391222
 C        -1.574074         2.492249         2.210194
 C        -0.734208         2.057939         1.039673
 H         0.608943        -0.100956         1.167546
 H        -3.046570         0.050564        -0.206260
 H        -2.319035         0.343041         1.539888
 H        -2.837692         2.030581        -1.686622
 H        -1.692070         3.452138        -1.254738
 H        -0.661893         0.729073        -2.108599
 H         0.315000         2.034916        -1.397148
 H        -1.154475         3.435888         2.514130
 H        -1.737967         1.716862         3.014038
 H        -0.035703         2.644899         0.608472
