19
Iteration:  3922
 O         0.266025        -0.203068         0.430968
 C        -0.669282         0.802976         0.240598
 C        -2.217559         0.536080         0.180916
 C        -2.063141         2.160288         0.294486
 C        -1.780883         2.491482        -1.169024
 C        -0.596841         1.520935        -1.216589
 O        -2.805745         2.714829         1.325855
 C        -1.683300         2.207648         2.272725
 C        -0.739627         1.977195         1.102870
 H         0.090498        -0.700316        -0.393723
 H        -2.686868         0.221636        -0.709733
 H        -2.554446         0.165017         1.154214
 H        -2.643597         2.145332        -1.827803
 H        -1.693533         3.493500        -1.251425
 H        -0.741948         0.732213        -2.052939
 H         0.426411         1.919783        -1.337215
 H        -1.177108         3.007621         2.918449
 H        -2.053307         1.385990         2.922237
 H         0.098160         2.730779         1.141255
