19
Iteration:  2305charge 0 multiplicity 1
 O         0.211936        -0.297749         0.475403
 C        -0.648214         0.815296         0.120760
 C        -2.148610         0.580621         0.341758
 C        -2.136346         2.072643         0.317968
 C        -1.854408         2.380994        -1.210963
 C        -0.620754         1.329142        -1.313663
 O        -2.837041         2.754397         1.454009
 C        -1.477555         2.411686         2.232707
 C        -0.800433         2.132314         1.062720
 H         0.572185        -0.664186        -0.354263
 H        -2.665421         0.207913        -0.563205
 H        -2.399058         0.011386         1.261621
 H        -2.760646         2.140888        -1.793664
 H        -1.433301         3.287997        -1.568002
 H        -0.712857         0.607252        -2.173505
 H         0.127046         2.060876        -1.555217
 H        -1.126815         3.262626         2.690955
 H        -1.777867         1.768207         3.046379
 H        -0.170032         2.982509         0.676015
