19
Iteration:  4338charge 0 multiplicity 1
 O         0.181374        -0.222316         0.404471
 C        -0.674775         0.771782         0.068450
 C        -2.246349         0.664594         0.245428
 C        -2.128801         2.182001         0.294688
 C        -1.706708         2.525135        -1.149350
 C        -0.514392         1.400335        -1.265540
 O        -2.845232         2.618704         1.454017
 C        -1.641317         2.210917         2.293356
 C        -0.740407         2.023807         1.006384
 H         0.828428        -0.194392         1.130097
 H        -2.751324         0.245396        -0.676001
 H        -2.710958         0.266616         1.136084
 H        -2.564521         2.305994        -1.826883
 H        -1.137138         3.455168        -1.492200
 H        -0.805068         0.728250        -2.012882
 H         0.509250         1.759677        -1.242345
 H        -1.465957         3.190019         2.843140
 H        -1.956938         1.331780         2.855329
 H        -0.077415         2.867677         0.768159
