19
Iteration:   624
 O         0.357123        -0.267914         0.392898
 C        -0.665912         0.747545         0.210985
 C        -2.143412         0.424519         0.435267
 C        -2.227617         2.008704         0.290199
 C        -1.818907         2.306041        -1.254302
 C        -0.653108         1.250713        -1.263652
 O        -2.747345         2.883148         1.444302
 C        -1.611177         2.630072         2.255321
 C        -0.881580         2.153878         0.937887
 H         0.739589        -0.577304        -0.425645
 H        -2.726700        -0.282544        -0.104508
 H        -2.298749         0.252746         1.473728
 H        -2.591443         2.114016        -2.052986
 H        -1.535464         3.332532        -1.347291
 H        -0.837550         0.350078        -1.916478
 H         0.263513         1.823265        -1.588002
 H        -1.200043         3.586877         2.735304
 H        -1.779595         1.866856         3.014879
 H        -0.350446         3.079469         0.621880
