19
Iteration:  2229charge 0 multiplicity 1
 O         0.389899        -0.189311         0.386307
 C        -0.688644         0.740568         0.171986
 C        -2.245341         0.509902         0.371067
 C        -2.097833         2.135649         0.337280
 C        -1.882331         2.384354        -1.254594
 C        -0.691030         1.327635        -1.305127
 O        -2.720793         2.845654         1.383423
 C        -1.634920         2.356266         2.354962
 C        -0.752075         2.094180         0.960255
 H        -0.027408        -1.059022         0.566842
 H        -2.663529        -0.052913        -0.409956
 H        -2.526358         0.180898         1.355623
 H        -2.680862         2.119993        -1.953052
 H        -1.541452         3.364508        -1.460103
 H        -0.729347         0.547253        -2.093216
 H         0.261411         1.835207        -1.344629
 H        -1.328872         3.188456         2.919375
 H        -2.111281         1.648337         3.026685
 H        -0.024616         2.798023         0.586823
