19
Iteration:  2793
 O         0.156358        -0.368912         0.479225
 C        -0.588382         0.771315         0.133704
 C        -2.109082         0.522049         0.319563
 C        -2.159184         2.076809         0.308570
 C        -1.945797         2.385417        -1.184913
 C        -0.608218         1.449584        -1.296715
 O        -2.767841         2.779715         1.436677
 C        -1.570459         2.477687         2.245219
 C        -0.736438         2.078651         0.946662
 H         1.117958        -0.319882         0.310595
 H        -2.746678         0.091352        -0.433416
 H        -2.435513        -0.009250         1.275471
 H        -2.804703         2.056030        -1.782082
 H        -1.743617         3.464163        -1.395481
 H        -0.660560         0.745191        -2.218962
 H         0.229901         2.119317        -1.405031
 H        -1.163776         3.228886         2.892648
 H        -1.970226         1.589489         2.780504
 H        -0.013496         2.965367         0.801048
