19
Iteration:  2096
 O         0.354838        -0.294076         0.366977
 C        -0.567983         0.722653         0.220290
 C        -2.190597         0.504506         0.312866
 C        -2.116880         2.133529         0.358622
 C        -1.904303         2.410021        -1.229992
 C        -0.698221         1.316213        -1.314444
 O        -2.802477         2.915581         1.401110
 C        -1.622527         2.365212         2.285341
 C        -0.706096         2.126939         0.991933
 H         0.021775        -0.791590         1.163521
 H        -2.574168        -0.144992        -0.528782
 H        -2.617978         0.281343         1.278738
 H        -2.741913         1.974488        -1.759543
 H        -1.581890         3.423619        -1.630177
 H        -0.910198         0.539863        -2.092237
 H         0.217560         1.879948        -1.592673
 H        -1.521612         3.123478         3.038369
 H        -1.874897         1.390347         2.775503
 H        -0.147072         3.083551         0.701377
