19
Iteration:  3434
 O         0.184290        -0.452852         0.293801
 C        -0.647492         0.722406         0.096859
 C        -2.109572         0.520826         0.214706
 C        -2.146681         2.099640         0.362370
 C        -1.739150         2.493116        -1.160012
 C        -0.462556         1.652664        -1.195396
 O        -2.884640         2.718873         1.435110
 C        -1.700258         2.390874         2.273095
 C        -0.829780         2.028894         1.074995
 H         1.065598        -0.032951         0.404112
 H        -2.862062         0.051776        -0.631327
 H        -2.233479         0.214113         1.281305
 H        -2.613610         2.113194        -1.733025
 H        -1.671570         3.555529        -1.405100
 H        -0.524827         0.803736        -1.997335
 H         0.555302         2.102154        -1.136773
 H        -1.287871         3.273285         2.896338
 H        -2.099931         1.629577         3.020835
 H        -0.085616         2.767848         0.776426
