19
Iteration:  4740charge 0 multiplicity 1
 O         0.225782        -0.229568         0.596730
 C        -0.615815         0.784088         0.129822
 C        -2.154886         0.525732         0.125147
 C        -2.089809         2.036997         0.238753
 C        -1.804652         2.554251        -1.161932
 C        -0.564778         1.562847        -1.320059
 O        -2.776617         2.742902         1.420535
 C        -1.743314         2.208528         2.290802
 C        -0.750767         1.992995         1.045835
 H        -0.022577        -1.068941         0.183679
 H        -2.572496         0.206007        -0.819769
 H        -2.691177        -0.044774         1.010246
 H        -2.745190         2.574171        -1.811296
 H        -1.416398         3.581371        -1.147915
 H        -0.583142         0.795433        -2.122092
 H         0.360785         2.154265        -1.309190
 H        -1.306339         3.073373         2.973386
 H        -2.091318         1.290765         2.775731
 H        -0.008583         2.886307         0.957798
