19
Iteration:  2960
 O         0.178741        -0.334177         0.454312
 C        -0.585438         0.759337         0.227051
 C        -2.070131         0.516971         0.350427
 C        -2.154293         2.079417         0.247629
 C        -1.894189         2.492278        -1.141064
 C        -0.687953         1.415928        -1.332600
 O        -2.800081         2.804282         1.419584
 C        -1.620338         2.307475         2.172253
 C        -0.703482         2.109988         0.996906
 H         1.113272        -0.057292         0.344043
 H        -2.483170        -0.075964        -0.506716
 H        -2.387796         0.119173         1.225796
 H        -2.677544         2.505784        -1.887665
 H        -1.380092         3.443887        -0.958234
 H        -1.084214         0.686564        -1.999643
 H         0.293499         1.863584        -1.675861
 H        -1.502746         3.073926         2.884014
 H        -1.823819         1.370814         2.616623
 H        -0.122341         3.013546         0.871633
