19
Iteration:  3856
 O         0.200439        -0.357436         0.262163
 C        -0.658822         0.761302         0.210522
 C        -2.170100         0.550325         0.289324
 C        -2.044086         2.112097         0.317901
 C        -1.739957         2.551478        -1.050819
 C        -0.629229         1.457134        -1.219280
 O        -2.847037         2.691851         1.321361
 C        -1.789458         2.309284         2.225187
 C        -0.715424         2.100949         1.094781
 H         1.105345        -0.005958         0.378309
 H        -2.616109         0.158697        -0.585148
 H        -2.358793         0.083493         1.266628
 H        -2.522473         2.500570        -1.866469
 H        -1.279610         3.450125        -1.174803
 H        -0.614891         0.599327        -2.008133
 H         0.373725         1.938937        -1.353186
 H        -1.442989         3.130448         2.968948
 H        -2.070392         1.528884         2.936849
 H         0.144582         2.792773         0.825103
