19
Iteration:  3238charge 0 multiplicity 1
 O         0.370023        -0.183172         0.393200
 C        -0.656930         0.743114         0.166415
 C        -2.175312         0.539796         0.208337
 C        -2.147422         2.090130         0.326081
 C        -1.764414         2.510945        -1.142469
 C        -0.650871         1.459979        -1.340079
 O        -2.757711         2.840396         1.429984
 C        -1.762884         2.279643         2.272655
 C        -0.776342         1.895543         1.088203
 H         0.134456        -1.054442         0.767024
 H        -2.637497         0.064588        -0.740931
 H        -2.551295        -0.001317         0.986439
 H        -2.668506         2.638183        -1.876553
 H        -1.258235         3.541763        -1.092530
 H        -0.996838         0.694870        -2.099728
 H         0.292309         1.859919        -1.638319
 H        -1.312527         3.102125         2.864706
 H        -2.154472         1.450830         2.792847
 H        -0.009301         2.610634         1.058411
