19
Iteration:  4189charge 0 multiplicity 1
 O         0.326311        -0.277841         0.413920
 C        -0.653899         0.688630         0.152103
 C        -2.224519         0.590210         0.165399
 C        -2.167407         2.116007         0.300401
 C        -1.745530         2.574594        -1.121561
 C        -0.540690         1.485096        -1.281654
 O        -2.851412         2.693336         1.484701
 C        -1.684460         2.313902         2.199908
 C        -0.811185         2.014395         1.018914
 H         0.177629        -0.573189         1.333829
 H        -2.750391         0.116914        -0.687554
 H        -2.787382         0.107046         1.001692
 H        -2.404576         2.594964        -1.925096
 H        -1.244501         3.581435        -1.095865
 H        -0.772526         0.728372        -2.091787
 H         0.535821         1.918522        -1.571026
 H        -1.226440         3.007543         2.844997
 H        -1.777748         1.420384         2.948120
 H         0.000542         2.700109         0.802001
