19
Iteration:   571charge 0 multiplicity 1
 O         0.279398        -0.311998         0.447924
 C        -0.565583         0.756818         0.269026
 C        -2.042088         0.510891         0.449653
 C        -2.078442         2.104461         0.316222
 C        -1.998386         2.300302        -1.237487
 C        -0.808452         1.286409        -1.402092
 O        -2.750378         2.898170         1.328674
 C        -1.675338         2.498899         2.272076
 C        -0.708280         2.083332         0.953711
 H         1.212930        -0.096512         0.417742
 H        -2.531728        -0.052732        -0.368393
 H        -2.307804         0.108444         1.418724
 H        -2.985817         1.954516        -1.759337
 H        -1.780892         3.314773        -1.446895
 H        -1.030000         0.393917        -2.077729
 H         0.068892         1.942879        -1.695174
 H        -1.206493         3.526137         2.726703
 H        -1.977981         1.764193         3.063592
 H         0.012674         2.917652         0.981536
