19
Iteration:  3228charge 0 multiplicity 1
 O         0.362686        -0.155856         0.452229
 C        -0.621902         0.732946         0.126634
 C        -2.227754         0.479832         0.170984
 C        -2.126906         2.077262         0.322890
 C        -1.801710         2.571723        -1.052535
 C        -0.642886         1.456983        -1.292264
 O        -2.711608         2.804725         1.354819
 C        -1.687549         2.304582         2.287216
 C        -0.838812         1.909254         1.057086
 H        -0.121321        -1.001561         0.458210
 H        -2.654724         0.248783        -0.877722
 H        -2.656566        -0.033635         0.947406
 H        -2.564423         2.291011        -1.856053
 H        -1.504619         3.701236        -1.048990
 H        -0.961654         0.662060        -2.024373
 H         0.325910         1.783437        -1.599207
 H        -1.290609         3.012855         3.012370
 H        -2.082068         1.546283         2.903101
 H        -0.108181         2.669233         0.875776
