19
Iteration:  4514
 O         0.338763        -0.223365         0.183457
 C        -0.680174         0.749128         0.144033
 C        -2.241559         0.553774         0.206224
 C        -2.067256         2.191683         0.365533
 C        -1.740314         2.412836        -1.182345
 C        -0.520112         1.379834        -1.203964
 O        -2.844862         2.822293         1.393064
 C        -1.807892         2.252903         2.325917
 C        -0.768257         2.008463         1.147777
 H         0.628846        -0.375014         1.129252
 H        -2.841108         0.305253        -0.664498
 H        -2.595159         0.164774         1.231569
 H        -2.561461         2.220624        -1.893923
 H        -1.361239         3.497729        -1.200314
 H        -0.785179         0.727453        -2.005488
 H         0.579303         1.717873        -1.446753
 H        -1.546574         3.061518         2.993501
 H        -2.113460         1.449117         3.085727
 H         0.019503         2.711987         1.038088
