19
Iteration:  3632
 O         0.288740        -0.199432         0.394757
 C        -0.694923         0.731263         0.077274
 C        -2.224853         0.556166         0.183977
 C        -2.099235         2.145913         0.301072
 C        -1.677892         2.529457        -1.083556
 C        -0.630843         1.424209        -1.262530
 O        -2.751567         2.762687         1.406677
 C        -1.766236         2.198791         2.270515
 C        -0.795869         1.972079         1.083284
 H         0.988737         0.380215         0.750136
 H        -2.999110         0.233280        -0.628628
 H        -2.334126        -0.186180         1.082371
 H        -2.410582         2.519376        -1.830932
 H        -1.280805         3.593438        -0.987953
 H        -1.021564         0.651714        -1.950579
 H         0.441406         1.621152        -1.645596
 H        -1.519858         3.035721         2.954103
 H        -2.161318         1.227947         2.789212
 H        -0.200141         2.860586         0.942994
