19
Iteration:  4145
 O         0.324851        -0.325187         0.245895
 C        -0.627680         0.769571         0.179215
 C        -2.160031         0.556553         0.305360
 C        -2.046519         2.149410         0.278127
 C        -1.800735         2.541406        -1.179633
 C        -0.554325         1.464126        -1.249623
 O        -2.812414         2.839987         1.388964
 C        -1.853679         2.229166         2.249974
 C        -0.753434         1.934025         1.109735
 H         0.528218        -0.437765         1.191988
 H        -2.838667        -0.007529        -0.379219
 H        -2.499040         0.191461         1.295065
 H        -2.584419         2.237829        -1.770059
 H        -1.585981         3.639465        -1.368818
 H        -0.672039         0.822789        -2.157483
 H         0.390178         2.203639        -1.326383
 H        -1.647352         2.999289         2.941187
 H        -2.441608         1.478302         2.976735
 H         0.132454         2.549629         1.249133
