19
Iteration:  4874
 O         0.211081        -0.302418         0.434243
 C        -0.633767         0.734933         0.177436
 C        -2.152312         0.570606         0.191870
 C        -2.089272         2.117568         0.262141
 C        -1.704973         2.600095        -1.195685
 C        -0.497780         1.502748        -1.282861
 O        -2.915947         2.728318         1.435786
 C        -1.704753         2.160877         2.294415
 C        -0.809037         2.048227         1.065568
 H         1.094023        -0.098563         0.823168
 H        -2.589399         0.242378        -0.776236
 H        -2.746383         0.149608         0.955893
 H        -2.301676         2.355798        -2.071185
 H        -1.461484         3.666859        -1.039847
 H        -0.767324         0.765873        -1.963229
 H         0.505146         1.837501        -1.676832
 H        -1.563079         2.878122         3.123330
 H        -2.120322         1.215350         2.695121
 H        -0.255367         2.993370         0.997135
