19
Iteration:   191
 O         0.276215        -0.322232         0.197180
 C        -0.627150         0.783204         0.249612
 C        -2.095246         0.443089         0.468695
 C        -2.119250         2.094480         0.325719
 C        -1.882720         2.234173        -1.260136
 C        -0.674638         1.347977        -1.208969
 O        -2.843577         2.849246         1.400138
 C        -1.671331         2.626948         2.250071
 C        -0.723830         2.106378         1.047194
 H         1.199327        -0.144073         0.467629
 H        -2.602284        -0.130716        -0.414196
 H        -2.485706         0.092363         1.439463
 H        -2.727839         1.754003        -1.834310
 H        -1.811658         3.236479        -1.604891
 H        -0.814954         0.547428        -1.982474
 H         0.317734         1.804577        -1.455574
 H        -1.310489         3.624171         2.639280
 H        -1.864872         1.879292         3.071733
 H         0.122496         2.915133         0.788042
