19
Iteration:  2697charge 0 multiplicity 1
 O         0.337720        -0.254307         0.422865
 C        -0.647212         0.756681         0.196266
 C        -2.161504         0.530838         0.437071
 C        -2.115830         2.100694         0.272174
 C        -1.960254         2.447350        -1.163221
 C        -0.750298         1.437724        -1.321570
 O        -2.769345         2.781554         1.360491
 C        -1.560563         2.387469         2.221864
 C        -0.675200         2.062411         0.978436
 H        -0.180290        -1.045551         0.633158
 H        -2.752561        -0.089285        -0.253327
 H        -2.560266         0.119209         1.407863
 H        -2.653976         1.961991        -1.899935
 H        -1.719751         3.433527        -1.625459
 H        -0.831428         0.709285        -2.154822
 H         0.174141         1.980365        -1.537243
 H        -1.087159         3.243027         2.690596
 H        -1.841270         1.584719         2.963896
 H         0.233633         2.641947         0.929832
