19
Iteration:  3537charge 0 multiplicity 1
 O         0.300660        -0.377995         0.309155
 C        -0.637195         0.715466         0.229460
 C        -2.199680         0.615377         0.202543
 C        -2.057708         2.102684         0.303186
 C        -1.787360         2.523031        -1.135067
 C        -0.577768         1.467316        -1.174677
 O        -2.850651         2.742123         1.372799
 C        -1.769362         2.296111         2.253068
 C        -0.771531         2.051195         1.132981
 H         1.071945        -0.238085        -0.290709
 H        -2.624835         0.248559        -0.664195
 H        -2.655887         0.168570         1.045166
 H        -2.597045         2.446024        -1.874522
 H        -1.432808         3.592650        -1.062459
 H        -0.683743         0.867171        -2.004630
 H         0.269604         2.134255        -1.386410
 H        -1.477937         3.077848         2.900642
 H        -2.011787         1.410384         2.823341
 H        -0.034755         2.848970         1.008226
