19
Iteration:  3329
 O         0.205444        -0.339116         0.435899
 C        -0.652956         0.721350         0.138152
 C        -2.260369         0.517151         0.219171
 C        -2.177532         2.089444         0.292287
 C        -1.819388         2.568711        -1.090601
 C        -0.523213         1.586838        -1.228325
 O        -2.815765         2.743781         1.342796
 C        -1.608425         2.282182         2.249787
 C        -0.747859         1.960994         1.062095
 H         1.113486         0.028617         0.353446
 H        -2.682523         0.176431        -0.717615
 H        -2.571405        -0.149510         1.151541
 H        -2.631077         2.395435        -1.825102
 H        -1.248788         3.597300        -1.088529
 H        -0.504238         1.023606        -2.132308
 H         0.444743         2.179511        -1.190269
 H        -1.354518         3.110787         2.883785
 H        -1.968174         1.443655         2.857638
 H         0.053450         2.637443         0.679238
