19
Iteration:  4648
 O         0.364771        -0.271404         0.438478
 C        -0.627464         0.719031         0.191445
 C        -2.195219         0.438261         0.298572
 C        -2.120020         2.071765         0.255848
 C        -1.674568         2.577302        -1.074043
 C        -0.648487         1.503317        -1.318583
 O        -2.807536         2.847152         1.348565
 C        -1.781483         2.260405         2.266733
 C        -0.839862         2.018622         1.054691
 H         0.801294        -0.849585        -0.219638
 H        -2.667313        -0.187571        -0.598504
 H        -2.601684         0.133567         1.237424
 H        -2.540992         2.725351        -1.797951
 H        -1.434835         3.690965        -1.031852
 H        -1.026438         0.828110        -2.166733
 H         0.266578         1.979809        -1.729311
 H        -1.390533         3.022800         2.977260
 H        -2.261183         1.331163         2.769406
 H         0.006525         2.697026         1.016728
