19
Iteration:  4723charge 0 multiplicity 1
 O         0.181005        -0.348308         0.549896
 C        -0.643848         0.777096         0.180375
 C        -2.112423         0.491379         0.198373
 C        -2.149980         2.121481         0.347083
 C        -1.823503         2.501759        -1.064556
 C        -0.471421         1.653486        -1.301096
 O        -2.812785         2.767032         1.342882
 C        -1.664971         2.231977         2.192929
 C        -0.799760         2.023311         1.024119
 H         0.098522        -0.902358        -0.248859
 H        -2.472487         0.076493        -0.773043
 H        -2.259650         0.066547         1.137175
 H        -2.347660         2.140028        -1.916293
 H        -1.686849         3.596062        -1.231498
 H        -0.687976         1.021303        -2.159254
 H         0.436209         2.306110        -1.454425
 H        -1.490636         2.928664         2.923655
 H        -2.018097         1.352717         2.760526
 H        -0.055414         2.754894         0.901540
