19
Iteration:   724
 O         0.414804        -0.260072         0.259345
 C        -0.691570         0.768448         0.282940
 C        -2.173789         0.447762         0.507843
 C        -2.069605         2.109762         0.327852
 C        -1.849754         2.376029        -1.177304
 C        -0.734620         1.299688        -1.259947
 O        -2.808031         2.827128         1.285419
 C        -1.685994         2.538465         2.193184
 C        -0.748821         2.073772         1.019328
 H         0.652363        -0.579558         1.164916
 H        -2.643388        -0.142095        -0.237900
 H        -2.401806         0.204278         1.547164
 H        -2.849569         2.018677        -1.684833
 H        -1.620599         3.337042        -1.524742
 H        -1.090748         0.706497        -2.151430
 H         0.245987         1.703817        -1.715364
 H        -1.386593         3.560279         2.649011
 H        -1.905291         1.729883         2.856608
 H         0.163714         2.670224         0.786766
