19
Iteration:  3022charge 0 multiplicity 1
 O         0.373520        -0.250401         0.316946
 C        -0.687928         0.648950         0.156858
 C        -2.240611         0.420076         0.261192
 C        -2.171779         2.077619         0.285970
 C        -1.861961         2.445822        -1.134082
 C        -0.596457         1.481921        -1.119489
 O        -2.735750         2.850142         1.372661
 C        -1.667647         2.456898         2.289808
 C        -0.760291         2.020013         1.094043
 H         0.611069        -0.731696        -0.503808
 H        -2.799363        -0.097196        -0.622860
 H        -2.588900         0.041079         1.167577
 H        -2.584299         2.195209        -1.870454
 H        -1.699257         3.567959        -1.186326
 H        -0.889824         0.809387        -1.962213
 H         0.348567         1.888744        -1.411346
 H        -1.352335         3.371541         2.812181
 H        -1.883184         1.644954         3.117793
 H        -0.102884         2.746524         0.560653
