19
Iteration:  3699
 O         0.151022        -0.369308         0.322820
 C        -0.656807         0.766066         0.094004
 C        -2.164120         0.507577         0.165920
 C        -2.174978         2.005524         0.393150
 C        -1.741889         2.410051        -1.125815
 C        -0.461133         1.616379        -1.207927
 O        -2.879249         2.752424         1.416292
 C        -1.707258         2.430007         2.286323
 C        -0.763414         1.990128         1.112221
 H         1.026881        -0.070160         0.011544
 H        -2.735182         0.230515        -0.787123
 H        -2.444617        -0.170013         1.003869
 H        -2.412671         2.293035        -1.907299
 H        -1.439991         3.483271        -1.147223
 H        -0.287344         1.066977        -2.080075
 H         0.489691         2.285456        -1.096395
 H        -1.276063         3.349865         2.698213
 H        -1.860795         1.679882         3.136576
 H         0.030970         2.647670         0.870653
