19
Iteration:  4814
 O         0.295225        -0.392441         0.199686
 C        -0.541831         0.733442         0.178767
 C        -2.081302         0.472748         0.223741
 C        -2.130177         2.121217         0.299732
 C        -1.788670         2.553962        -1.044023
 C        -0.521935         1.535408        -1.191450
 O        -2.866780         2.824329         1.309969
 C        -1.888008         2.344327         2.211009
 C        -0.753299         1.939680         1.214507
 H         0.326766        -0.623210         1.165748
 H        -2.524940         0.137356        -0.691332
 H        -2.532707         0.128755         1.175229
 H        -2.428622         2.532229        -1.934264
 H        -1.623970         3.622105        -1.038961
 H        -0.742697         0.863414        -2.115482
 H         0.289420         2.186859        -1.192459
 H        -1.440954         3.115050         2.877231
 H        -2.248366         1.560451         2.866546
 H        -0.045492         2.796595         1.154476
