19
Iteration:  2488
 O         0.356695        -0.177869         0.317291
 C        -0.644279         0.717226         0.159677
 C        -2.174098         0.555802         0.483567
 C        -2.065827         2.200622         0.266089
 C        -1.855122         2.421611        -1.227534
 C        -0.752692         1.277969        -1.354315
 O        -2.772546         2.758738         1.443934
 C        -1.667228         2.426611         2.236636
 C        -0.708568         2.065375         1.062932
 H         0.199710        -1.113786         0.439589
 H        -2.749815        -0.220792        -0.142590
 H        -2.341220         0.241891         1.597289
 H        -2.739708         2.296752        -1.896642
 H        -1.326665         3.406320        -1.433794
 H        -1.025122         0.375945        -2.001258
 H         0.077974         1.771466        -1.752277
 H        -1.414241         3.213734         2.930216
 H        -2.285484         1.717335         2.900201
 H         0.098955         2.689750         0.793274
