19
Iteration:  4912
 O         0.294328        -0.275139         0.461293
 C        -0.613071         0.736505         0.133171
 C        -2.181655         0.543649         0.253354
 C        -2.102828         2.146923         0.306332
 C        -1.703685         2.637756        -1.078860
 C        -0.552529         1.502656        -1.325892
 O        -2.863708         2.745207         1.284554
 C        -1.841625         2.174969         2.255912
 C        -0.785662         1.938665         1.147610
 H         1.190336        -0.173514         0.085843
 H        -2.724311         0.074195        -0.589256
 H        -2.504660         0.019105         1.225899
 H        -2.522736         2.627505        -1.860713
 H        -1.244120         3.633118        -1.083041
 H        -1.059716         1.011709        -2.236420
 H         0.453752         1.803495        -1.524652
 H        -1.473164         2.928698         2.981882
 H        -2.228313         1.333143         2.839540
 H         0.010493         2.690403         1.069521
