19
Iteration:  2626
 O         0.438541        -0.170469         0.404553
 C        -0.696699         0.672112         0.132289
 C        -2.266605         0.502473         0.440407
 C        -2.123019         2.100816         0.357028
 C        -1.854958         2.423077        -1.131149
 C        -0.793455         1.372037        -1.325930
 O        -2.745761         2.842922         1.311375
 C        -1.576041         2.454602         2.235846
 C        -0.737465         1.947524         1.031063
 H         0.361938        -0.940440        -0.199478
 H        -2.996362         0.044709        -0.256972
 H        -2.394408         0.084554         1.396428
 H        -2.820344         2.221315        -1.551687
 H        -1.633555         3.474903        -1.263781
 H        -0.862152         0.643546        -2.140877
 H         0.244369         1.863386        -1.471923
 H        -1.368345         3.495489         2.602554
 H        -1.793203         1.753911         3.017062
 H         0.182097         2.578219         0.681084
