19
Iteration:  2928
 O         0.222551        -0.294546         0.365805
 C        -0.692501         0.660166         0.150758
 C        -2.218878         0.562880         0.270719
 C        -2.104087         2.086312         0.304321
 C        -1.915538         2.382333        -1.215936
 C        -0.573731         1.501618        -1.238319
 O        -2.751342         2.715007         1.423567
 C        -1.559065         2.462602         2.278173
 C        -0.799909         2.002886         1.045794
 H         0.913799         0.151781         0.868131
 H        -2.622322        -0.104688        -0.570059
 H        -2.608193         0.247830         1.192737
 H        -2.701288         2.123768        -1.986726
 H        -1.647995         3.424581        -1.489906
 H        -0.512072         0.969184        -2.154884
 H         0.410620         2.094915        -1.270532
 H        -1.238385         3.438373         2.672302
 H        -1.680197         1.883348         3.141836
 H        -0.075757         2.772215         0.960144
