19
Iteration:  3234charge 0 multiplicity 1
 O         0.351889        -0.156692         0.419983
 C        -0.607550         0.737662         0.155451
 C        -2.194169         0.520358         0.181937
 C        -2.155097         2.086934         0.350805
 C        -1.781993         2.546242        -1.118172
 C        -0.654682         1.459996        -1.332501
 O        -2.721554         2.816447         1.397963
 C        -1.737739         2.316148         2.262287
 C        -0.820630         1.867760         1.075425
 H         0.047264        -1.044272         0.647928
 H        -2.569691         0.211204        -0.758659
 H        -2.671055        -0.085840         1.040701
 H        -2.603400         2.480941        -1.844893
 H        -1.396994         3.511299        -1.034156
 H        -0.986123         0.706432        -2.048579
 H         0.373660         1.785650        -1.645780
 H        -1.279672         3.060376         2.968364
 H        -2.148868         1.416171         2.845225
 H        -0.002384         2.634945         0.980986
