19
Iteration:    47
 O         0.335916        -0.383538         0.315841
 C        -0.624018         0.704020         0.107589
 C        -2.129648         0.510832         0.309668
 C        -2.186772         2.065468         0.392357
 C        -1.889959         2.344308        -1.053656
 C        -0.586447         1.400189        -1.278832
 O        -2.900144         2.644417         1.373746
 C        -1.609770         2.733719         2.264797
 C        -0.775144         2.134910         0.969896
 H         0.508140        -0.407716         1.283014
 H        -2.592762         0.151278        -0.624283
 H        -2.239015        -0.232631         1.150586
 H        -2.634212         2.103983        -1.764853
 H        -1.633395         3.423974        -1.159852
 H        -0.730209         0.729005        -2.051131
 H         0.489524         1.860576        -1.354959
 H        -1.385732         3.768195         2.123254
 H        -1.716787         2.388716         3.329455
 H        -0.003062         2.952950         0.629797
