19
Iteration:  4562charge 0 multiplicity 1
 O         0.300509        -0.292701         0.307962
 C        -0.645737         0.740541         0.133163
 C        -2.174943         0.490555         0.355520
 C        -2.141031         2.030969         0.352536
 C        -1.681470         2.582107        -1.041393
 C        -0.555807         1.553362        -1.271157
 O        -2.876005         2.731006         1.290002
 C        -1.718283         2.369456         2.212299
 C        -0.775421         2.018726         1.068812
 H        -0.215178        -1.068142         0.529770
 H        -2.663074         0.037606        -0.535486
 H        -2.328471         0.038315         1.301786
 H        -2.587505         2.355239        -1.660418
 H        -1.450116         3.693563        -1.000643
 H        -0.708285         0.849432        -2.137962
 H         0.383626         2.009438        -1.398513
 H        -1.431402         3.044303         3.033449
 H        -2.120776         1.509669         2.798414
 H         0.062885         2.736288         0.917685
