19
Iteration:  4383
 O         0.267638        -0.345897         0.283024
 C        -0.666912         0.735303         0.096012
 C        -2.104534         0.445510         0.230609
 C        -2.077851         2.049887         0.339706
 C        -1.817257         2.504592        -1.080836
 C        -0.561873         1.501489        -1.217529
 O        -2.728855         2.947194         1.349458
 C        -1.822743         2.290350         2.287455
 C        -0.820731         1.999738         1.056615
 H         0.529581        -0.276830         1.226549
 H        -2.557872        -0.033278        -0.635811
 H        -2.347009        -0.071511         1.194522
 H        -2.494730         2.213019        -1.855276
 H        -1.656134         3.623231        -0.915296
 H        -0.703897         0.842004        -1.994666
 H         0.226734         2.234946        -1.329033
 H        -1.335549         3.005813         2.936190
 H        -2.389631         1.475947         2.821660
 H        -0.008308         2.689551         1.016098
