19
Iteration:   637charge 0 multiplicity 1
 O         0.297201        -0.244883         0.548930
 C        -0.568421         0.747817         0.150836
 C        -2.196021         0.455969         0.413038
 C        -2.155084         2.022303         0.254049
 C        -1.932299         2.336877        -1.220573
 C        -0.678729         1.328957        -1.285485
 O        -2.845344         2.819137         1.419702
 C        -1.535301         2.573618         2.213899
 C        -0.718709         2.166169         0.940796
 H         0.529067        -0.699075        -0.308890
 H        -2.732822        -0.125614        -0.335505
 H        -2.245216         0.024291         1.415579
 H        -2.793350         1.911159        -1.888807
 H        -1.669266         3.320489        -1.455504
 H        -1.004735         0.547048        -2.076746
 H         0.421504         1.597334        -1.534675
 H        -1.241018         3.626971         2.750292
 H        -1.654176         1.799618         3.014819
 H        -0.007719         2.880648         0.473602
