19
Iteration:  4989
 O         0.213595        -0.453539         0.356892
 C        -0.630558         0.716867         0.125869
 C        -2.049106         0.473149         0.234176
 C        -2.092669         2.186724         0.305336
 C        -1.754532         2.636454        -1.094368
 C        -0.505191         1.618217        -1.269731
 O        -2.927140         2.743952         1.309814
 C        -1.846540         2.238893         2.246352
 C        -0.772650         2.049219         1.154080
 H         1.076733        -0.196429         0.771214
 H        -2.566158        -0.067285        -0.569616
 H        -2.257208        -0.100769         1.266406
 H        -2.571218         2.313648        -1.784176
 H        -1.432157         3.706790        -1.075637
 H        -0.331346         0.860092        -2.141500
 H         0.456206         2.099843        -1.323186
 H        -1.550747         3.056745         2.977263
 H        -2.229838         1.518628         2.948824
 H         0.044853         2.767517         0.975039
