19
Iteration:  1778
 O         0.239585        -0.272740         0.519161
 C        -0.675404         0.738878         0.105754
 C        -2.206983         0.475750         0.346837
 C        -2.172687         2.064988         0.303200
 C        -1.810776         2.466048        -1.111872
 C        -0.635294         1.369008        -1.273808
 O        -2.790601         2.769965         1.317530
 C        -1.565806         2.431793         2.224826
 C        -0.744567         2.149309         1.014616
 H         0.961802        -0.529758        -0.066222
 H        -2.703851        -0.159210        -0.399271
 H        -2.395131         0.085470         1.390598
 H        -2.606468         2.191793        -1.847227
 H        -1.475385         3.487568        -1.198506
 H        -0.966691         0.684922        -2.089849
 H         0.283713         1.877576        -1.540503
 H        -1.389965         3.389277         2.743797
 H        -1.778308         1.489080         2.827053
 H         0.039348         2.825466         0.624727
