19
Iteration:   438charge 0 multiplicity 1
 O         0.403090        -0.215628         0.368541
 C        -0.650500         0.697118         0.211601
 C        -2.150803         0.563696         0.470523
 C        -2.102939         2.075203         0.331886
 C        -2.040955         2.224180        -1.206722
 C        -0.727494         1.335577        -1.284299
 O        -2.756271         2.824010         1.317746
 C        -1.610126         2.631639         2.214903
 C        -0.649632         2.048842         1.007986
 H        -0.034719        -1.079047         0.392139
 H        -2.846106         0.276514        -0.251787
 H        -2.489994         0.272921         1.446107
 H        -2.910122         1.773170        -1.714236
 H        -2.006070         3.266466        -1.594008
 H        -0.828192         0.586014        -2.072012
 H         0.307651         1.788224        -1.356363
 H        -1.275276         3.622666         2.653934
 H        -1.810786         1.770204         2.837297
 H         0.163408         2.724812         0.866474
