19
Iteration:  1412charge 0 multiplicity 1
 O         0.279881        -0.274811         0.498594
 C        -0.594230         0.755750         0.154831
 C        -2.215096         0.599613         0.265802
 C        -2.119999         2.102869         0.289644
 C        -1.766931         2.425503        -1.152288
 C        -0.599905         1.397551        -1.282455
 O        -2.859424         2.646815         1.444801
 C        -1.625603         2.427970         2.260457
 C        -0.783408         2.156890         0.923328
 H        -0.089315        -1.173059         0.316295
 H        -2.651281         0.187772        -0.658131
 H        -2.570278         0.156383         1.201856
 H        -2.508547         1.918753        -1.715984
 H        -1.411566         3.493771        -1.455185
 H        -0.730738         0.770533        -2.133961
 H         0.456403         1.874841        -1.431903
 H        -1.520254         3.388733         2.803018
 H        -1.674012         1.583511         2.910274
 H        -0.145726         3.098449         0.704752
