19
Iteration:  3293
 O         0.183933        -0.389432         0.248694
 C        -0.645783         0.740383         0.121541
 C        -2.124420         0.470325         0.231803
 C        -2.140827         2.094744         0.329933
 C        -1.809344         2.535293        -1.134496
 C        -0.511505         1.553664        -1.184074
 O        -2.863830         2.749143         1.354219
 C        -1.664923         2.428687         2.327782
 C        -0.757487         1.962131         1.127457
 H         0.886801        -0.342805         0.929203
 H        -2.556435        -0.017866        -0.716301
 H        -2.542843        -0.004920         1.047232
 H        -2.708445         2.423530        -1.842383
 H        -1.457278         3.583103        -1.432926
 H        -0.483890         0.912397        -2.104505
 H         0.329759         2.227995        -1.184955
 H        -1.305263         3.343889         2.836396
 H        -2.032310         1.648127         2.975218
 H         0.011206         2.685620         1.141409
