19
Iteration:  2324charge 0 multiplicity 1
 O         0.281165        -0.279552         0.515076
 C        -0.719340         0.754985         0.172058
 C        -2.209310         0.502772         0.271729
 C        -2.163255         2.132417         0.262001
 C        -1.918160         2.393618        -1.194378
 C        -0.623873         1.382470        -1.246515
 O        -2.715054         2.768484         1.499203
 C        -1.595628         2.435463         2.268964
 C        -0.688826         2.094144         0.876863
 H         0.876707        -0.401536        -0.263412
 H        -2.600371         0.116184        -0.747395
 H        -2.540457         0.244627         1.278413
 H        -2.686652         1.988198        -1.891203
 H        -1.735212         3.487628        -1.456688
 H        -1.079201         0.623877        -1.946769
 H         0.313495         1.909164        -1.437516
 H        -1.336128         3.267906         2.951468
 H        -1.876327         1.495352         2.923337
 H         0.047536         2.741297         0.584732
