19
Iteration:  1627
 O         0.324336        -0.244572         0.468766
 C        -0.553909         0.781130         0.153795
 C        -2.212969         0.557515         0.393930
 C        -2.145184         2.052982         0.292126
 C        -1.885633         2.383819        -1.189190
 C        -0.628112         1.404044        -1.248956
 O        -2.761289         2.910721         1.339604
 C        -1.669494         2.272378         2.222818
 C        -0.776350         2.114534         0.977197
 H         0.229115        -1.118721         0.104076
 H        -2.696093         0.080479        -0.486849
 H        -2.395200        -0.021508         1.334804
 H        -2.732762         2.151673        -1.948814
 H        -1.619811         3.508852        -1.226570
 H        -0.727777         0.448654        -1.873428
 H         0.325785         1.860761        -1.582835
 H        -1.532647         3.056579         3.020569
 H        -1.982104         1.346883         2.807904
 H         0.006543         2.888762         0.838634
