19
Iteration:   605
 O         0.385324        -0.228553         0.299874
 C        -0.631866         0.710443         0.254025
 C        -2.175402         0.516030         0.568432
 C        -2.172673         2.088855         0.317534
 C        -1.856986         2.283857        -1.117874
 C        -0.716950         1.244032        -1.199416
 O        -2.862986         2.930969         1.281614
 C        -1.626497         2.522261         2.150857
 C        -0.726040         2.036509         0.958330
 H         0.918263        -0.137431        -0.499899
 H        -2.780315        -0.065334        -0.193359
 H        -2.365177         0.085736         1.576215
 H        -2.723068         2.140643        -1.893903
 H        -1.514382         3.287300        -1.306540
 H        -0.882333         0.452071        -2.003440
 H         0.339150         1.640712        -1.400181
 H        -1.160570         3.537983         2.611224
 H        -1.918518         1.800472         2.966526
 H         0.022425         2.843745         0.797905
