19
Iteration:   201charge 0 multiplicity 1
 O         0.328725        -0.274418         0.188854
 C        -0.579134         0.739260         0.249828
 C        -2.159062         0.534755         0.367743
 C        -2.109682         2.040668         0.369153
 C        -1.980935         2.207996        -1.179369
 C        -0.641322         1.282171        -1.204464
 O        -2.790063         2.935781         1.365159
 C        -1.701536         2.574267         2.239999
 C        -0.705623         2.098849         1.072988
 H         1.121516        -0.032268         0.694406
 H        -2.738455         0.075646        -0.539948
 H        -2.412922        -0.113324         1.227660
 H        -2.877403         1.779100        -1.683752
 H        -1.753416         3.196612        -1.494599
 H        -0.715128         0.296870        -1.612725
 H         0.235109         1.866809        -1.611063
 H        -1.335888         3.465426         2.806578
 H        -1.980767         1.827374         3.010250
 H        -0.213269         2.969955         0.484661
