19
Iteration:  4975charge 0 multiplicity 1
 O         0.165577        -0.464026         0.325071
 C        -0.549240         0.776219         0.117283
 C        -2.091856         0.592841         0.280802
 C        -2.072607         2.053925         0.281586
 C        -1.795072         2.555769        -1.149168
 C        -0.441308         1.664800        -1.207597
 O        -2.853966         2.677176         1.294994
 C        -1.887674         2.360894         2.332802
 C        -0.787419         1.929936         1.141314
 H         1.115333        -0.263400         0.362992
 H        -2.693625         0.090841        -0.535889
 H        -2.332784         0.189144         1.313648
 H        -2.561508         2.339189        -1.916146
 H        -1.612270         3.633071        -1.280172
 H        -0.464085         1.188871        -2.172990
 H         0.397741         2.397471        -1.141658
 H        -1.587242         3.270137         2.755233
 H        -2.238636         1.471579         2.940366
 H        -0.093765         2.691230         1.323907
