19
Iteration:   895charge 0 multiplicity 1
 O         0.262603        -0.369908         0.330305
 C        -0.655524         0.740966         0.242854
 C        -2.215429         0.492524         0.358358
 C        -2.127929         2.108519         0.243797
 C        -1.978175         2.328913        -1.185901
 C        -0.520985         1.579726        -1.270420
 O        -2.825634         2.684952         1.356448
 C        -1.627165         2.598357         2.206482
 C        -0.684255         2.047713         1.126603
 H         1.062340        -0.071489         0.807613
 H        -2.747698        -0.101505        -0.427971
 H        -2.477613         0.191440         1.410530
 H        -2.597453         1.654905        -1.785657
 H        -1.855906         3.311250        -1.594882
 H        -0.631262         0.668824        -1.902759
 H         0.399487         1.992476        -1.515192
 H        -1.423189         3.674149         2.497868
 H        -1.885275         2.003828         3.147114
 H         0.291845         2.515687         0.850731
