19
Iteration:  2765
 O         0.246811        -0.332866         0.270991
 C        -0.637363         0.775214         0.196932
 C        -2.122279         0.538690         0.484358
 C        -2.092326         2.160852         0.292330
 C        -1.900940         2.439362        -1.156762
 C        -0.715225         1.338174        -1.212982
 O        -2.774072         2.748669         1.318108
 C        -1.648890         2.396967         2.192206
 C        -0.671004         2.104414         1.000956
 H         0.941743        -0.219648         0.953752
 H        -2.684282        -0.030150        -0.333730
 H        -2.533179         0.221441         1.384234
 H        -2.816265         2.202047        -1.750491
 H        -1.702313         3.495789        -1.368177
 H        -0.949038         0.682754        -1.983132
 H         0.303433         1.746072        -1.483472
 H        -1.255959         3.316189         2.751261
 H        -2.055821         1.681374         2.905495
 H         0.063759         2.848836         1.064876
