19
Iteration:  1021charge 0 multiplicity 1
 O         0.258696        -0.330097         0.398654
 C        -0.578423         0.770009         0.200967
 C        -2.080189         0.557155         0.444849
 C        -2.152870         2.028272         0.310061
 C        -1.904716         2.366367        -1.188058
 C        -0.525313         1.588669        -1.247580
 O        -2.870736         2.780390         1.336641
 C        -1.678710         2.459182         2.117787
 C        -0.746850         2.004947         1.027989
 H        -0.277541        -1.090467         0.613969
 H        -2.363203        -0.115047        -0.381723
 H        -2.292502         0.049280         1.365411
 H        -2.754309         1.962453        -1.761639
 H        -1.960449         3.515188        -1.325266
 H        -0.437558         0.909071        -2.063384
 H         0.369026         2.361226        -1.259334
 H        -1.372883         3.255383         2.747935
 H        -1.741144         1.615521         2.835454
 H         0.047055         2.685247         0.609884
