19
Iteration:  1635charge 0 multiplicity 1
 O         0.373464        -0.239774         0.515241
 C        -0.610075         0.738275         0.203094
 C        -2.196375         0.571440         0.315444
 C        -2.145248         2.117218         0.290263
 C        -1.892387         2.397292        -1.213044
 C        -0.658028         1.383889        -1.285991
 O        -2.753451         2.829892         1.372622
 C        -1.680198         2.346592         2.240104
 C        -0.743870         2.069262         0.969545
 H         0.039006        -1.061063         0.132098
 H        -2.814965         0.076034        -0.445799
 H        -2.429732         0.182476         1.289420
 H        -2.783296         2.355637        -1.958465
 H        -1.472582         3.355176        -1.307368
 H        -0.654843         0.527431        -2.037876
 H         0.186686         2.014139        -1.467408
 H        -1.454785         3.027864         3.002628
 H        -1.857816         1.307025         2.748251
 H        -0.137096         2.938576         0.750920
