19
Iteration:  3213charge 0 multiplicity 1
 O         0.332608        -0.254806         0.484955
 C        -0.712394         0.726628         0.167427
 C        -2.252761         0.473749         0.121955
 C        -2.146106         2.093788         0.335887
 C        -1.817299         2.550211        -1.107380
 C        -0.600355         1.503852        -1.204418
 O        -2.789439         2.786730         1.347812
 C        -1.599039         2.262347         2.278820
 C        -0.753359         2.048935         0.992715
 H         0.347436        -1.131105         0.012300
 H        -2.715579        -0.029156        -0.688310
 H        -2.578335         0.059101         1.150661
 H        -2.743578         2.417120        -1.768606
 H        -1.462549         3.558764        -1.073247
 H        -0.758464         0.905264        -2.117702
 H         0.406067         2.019900        -1.221541
 H        -1.235032         3.183026         2.824450
 H        -1.877364         1.346871         2.902842
 H        -0.076894         2.893742         0.778550
