19
Iteration:  1128charge 0 multiplicity 1
 O         0.355934        -0.284453         0.329316
 C        -0.611512         0.740337         0.212516
 C        -2.119776         0.603775         0.278461
 C        -2.112828         2.093450         0.324279
 C        -1.890508         2.361911        -1.172890
 C        -0.591830         1.379495        -1.265784
 O        -2.786106         2.827073         1.311025
 C        -1.713507         2.364850         2.308594
 C        -0.850390         2.109800         1.053088
 H         0.456763        -0.489112         1.280207
 H        -2.705867         0.111476        -0.488743
 H        -2.497700         0.202578         1.205541
 H        -2.730898         1.970003        -1.757018
 H        -1.648116         3.397693        -1.325536
 H        -0.746823         0.602579        -1.994128
 H         0.353690         1.779663        -1.705536
 H        -1.352695         3.207335         3.040014
 H        -2.136264         1.459531         2.807554
 H        -0.001847         2.882203         0.965255
