19
Iteration:  3364
 O         0.277924        -0.350393         0.355337
 C        -0.572484         0.814200         0.221898
 C        -2.186062         0.704697         0.283726
 C        -2.101613         2.178760         0.316551
 C        -1.689426         2.515719        -1.198400
 C        -0.611010         1.386568        -1.388162
 O        -2.884175         2.765569         1.422762
 C        -1.793016         2.145661         2.353444
 C        -0.768432         2.054573         1.116262
 H         1.092371        -0.120534        -0.140589
 H        -2.711890         0.242226        -0.546875
 H        -2.442676         0.050518         1.195656
 H        -2.412713         2.517317        -2.004122
 H        -1.245098         3.556278        -1.339375
 H        -1.010181         0.504637        -1.910790
 H         0.312889         1.725364        -1.896131
 H        -1.653880         2.839000         3.179774
 H        -2.016565         1.111526         2.704385
 H        -0.132629         2.974189         0.991571
