19
Iteration:  3686charge 0 multiplicity 1
 O         0.123432        -0.343133         0.332597
 C        -0.644045         0.710244         0.081869
 C        -2.146857         0.558622         0.156570
 C        -2.045149         2.164321         0.329253
 C        -1.816062         2.466916        -1.044013
 C        -0.453582         1.531949        -1.260465
 O        -2.880264         2.677474         1.375575
 C        -1.690154         2.390665         2.360827
 C        -0.744249         1.984219         1.063684
 H         1.050658        -0.110495         0.521610
 H        -2.549088         0.041919        -0.814300
 H        -2.429630        -0.058780         1.098368
 H        -2.628024         2.101150        -1.622587
 H        -1.608830         3.576806        -1.165933
 H        -0.428062         0.952467        -2.187267
 H         0.428936         2.236959        -1.099405
 H        -1.509567         3.378852         2.790677
 H        -2.166974         1.607493         3.070001
 H        -0.157624         2.876722         0.961975
