19
Iteration:  2245charge 0 multiplicity 1
 O         0.383058        -0.165142         0.303081
 C        -0.667192         0.700865         0.143261
 C        -2.163846         0.490479         0.321801
 C        -2.158067         2.084457         0.298967
 C        -1.836082         2.320122        -1.121058
 C        -0.652219         1.306363        -1.255321
 O        -2.733295         2.951701         1.413571
 C        -1.687552         2.486567         2.232391
 C        -0.814184         1.988788         1.096355
 H         0.116135        -1.107297         0.211828
 H        -2.844077         0.089023        -0.506297
 H        -2.350311         0.099807         1.350230
 H        -2.749194         2.076156        -1.697415
 H        -1.532224         3.382986        -1.389392
 H        -0.940670         0.488860        -1.918821
 H         0.289077         1.798253        -1.625676
 H        -1.151280         3.308747         2.892849
 H        -1.930832         1.547024         2.765337
 H        -0.127177         2.856822         0.994224
