19
Iteration:  4223
 O         0.239727        -0.290171         0.340264
 C        -0.663924         0.738443         0.164374
 C        -2.133633         0.529473         0.252263
 C        -2.035021         2.083899         0.303784
 C        -1.836193         2.581580        -1.069006
 C        -0.535568         1.486290        -1.227582
 O        -2.803621         2.713588         1.358361
 C        -1.738835         2.329779         2.205198
 C        -0.759637         2.034955         1.063117
 H        -0.238413        -0.969538         0.844250
 H        -2.480015        -0.020392        -0.607199
 H        -2.421344         0.181003         1.290332
 H        -2.631891         2.478441        -1.777744
 H        -1.369106         3.540834        -1.090272
 H        -0.888268         0.819610        -2.060611
 H         0.399499         2.092639        -1.498576
 H        -1.467345         3.177689         2.814077
 H        -2.078380         1.397323         2.750727
 H         0.053400         2.759862         0.986977
