19
Iteration:  3606
 O         0.337276        -0.349548         0.355668
 C        -0.663691         0.661614         0.216409
 C        -2.195589         0.478640         0.145572
 C        -2.074710         2.182870         0.256169
 C        -1.829730         2.581931        -1.109558
 C        -0.579424         1.542565        -1.250506
 O        -2.834222         2.804576         1.392581
 C        -1.684603         2.277989         2.283038
 C        -0.850795         1.931065         1.105024
 H         1.153597         0.089267         0.665537
 H        -2.724666         0.095842        -0.736652
 H        -2.805991         0.088578         0.956895
 H        -2.785555         2.461934        -1.791292
 H        -1.547523         3.624977        -1.228682
 H        -0.460180         0.712377        -2.066850
 H         0.381064         1.942609        -1.182050
 H        -1.309548         3.232781         2.749249
 H        -1.974742         1.516894         3.004386
 H        -0.017005         2.712646         1.041866
