19
Iteration:  1144
 O         0.282682        -0.322428         0.293061
 C        -0.626743         0.805453         0.188046
 C        -2.160656         0.527339         0.417485
 C        -2.101898         2.149468         0.244564
 C        -1.827229         2.342992        -1.202451
 C        -0.552038         1.430514        -1.198581
 O        -2.882426         2.755372         1.427860
 C        -1.728657         2.410272         2.204503
 C        -0.679189         2.153259         1.008202
 H         0.108083        -0.864800         1.067947
 H        -2.548112         0.001481        -0.480131
 H        -2.490625         0.083298         1.409273
 H        -2.596904         1.930115        -1.883067
 H        -1.640592         3.377520        -1.631952
 H        -0.573539         0.631212        -2.014700
 H         0.302882         2.097499        -1.159191
 H        -1.484117         3.173776         2.858466
 H        -1.868144         1.515717         2.842869
 H        -0.076338         2.944805         0.650551
