19
Iteration:   448
 O         0.419539        -0.237544         0.271207
 C        -0.702664         0.731326         0.260352
 C        -2.157669         0.520792         0.566851
 C        -2.071315         2.143912         0.262915
 C        -2.004529         2.241535        -1.257598
 C        -0.776364         1.316655        -1.230067
 O        -2.785360         2.842550         1.249219
 C        -1.574415         2.524531         2.226496
 C        -0.686771         2.100197         1.064019
 H         0.112168        -1.116559         0.506815
 H        -2.729453        -0.143309         0.006536
 H        -2.314808         0.401188         1.624930
 H        -2.839628         1.907467        -1.803502
 H        -1.686812         3.272864        -1.600509
 H        -0.695306         0.488477        -1.933634
 H         0.084757         2.010513        -1.464808
 H        -1.274856         3.501721         2.675332
 H        -1.844747         1.946589         3.144633
 H         0.150978         2.754517         0.931802
