19
Iteration:  1112charge 0 multiplicity 1
 O         0.402606        -0.192086         0.382523
 C        -0.619568         0.777879         0.167152
 C        -2.190239         0.433958         0.311561
 C        -2.120820         2.121551         0.296477
 C        -1.824043         2.438833        -1.178384
 C        -0.737198         1.357182        -1.282859
 O        -2.790966         2.933995         1.310638
 C        -1.774141         2.326982         2.255830
 C        -0.688992         1.913683         1.096200
 H         0.596640        -0.033807         1.337523
 H        -2.640575        -0.103575        -0.573030
 H        -2.427248        -0.119345         1.270264
 H        -2.679760         2.329367        -1.881860
 H        -1.376285         3.460150        -1.338373
 H        -0.966707         0.456292        -1.999631
 H         0.213516         1.832957        -1.546809
 H        -1.384519         3.157594         2.819517
 H        -2.165522         1.593802         2.954556
 H        -0.072617         2.765977         1.008401
