19
Iteration:  1395
 O         0.302564        -0.175115         0.517286
 C        -0.697176         0.812035         0.198514
 C        -2.204811         0.499609         0.261164
 C        -2.191338         2.090856         0.266928
 C        -1.871907         2.392622        -1.232514
 C        -0.542582         1.422760        -1.243335
 O        -2.795770         2.773985         1.404331
 C        -1.594602         2.330821         2.189735
 C        -0.739118         2.075838         1.021177
 H        -0.069352        -1.049143         0.258483
 H        -2.653516         0.030516        -0.624708
 H        -2.526278         0.044507         1.234214
 H        -2.651991         2.463541        -2.054244
 H        -1.511015         3.368486        -1.081767
 H        -0.597661         0.533733        -1.922534
 H         0.379794         1.960598        -1.353411
 H        -1.096645         3.038590         2.850687
 H        -1.865460         1.449930         2.898532
 H         0.001222         2.736815         0.653490
