19
Iteration:  3189
 O         0.181873        -0.318588         0.411172
 C        -0.669888         0.824333         0.159136
 C        -2.169017         0.600671         0.326280
 C        -2.107536         2.101731         0.228497
 C        -1.768805         2.508994        -1.238750
 C        -0.481485         1.499577        -1.250137
 O        -2.833316         2.675969         1.495594
 C        -1.712939         2.274924         2.261644
 C        -0.763636         2.029148         1.007541
 H         0.577098        -0.606051        -0.437159
 H        -2.836841         0.082723        -0.327528
 H        -2.369488         0.338881         1.470987
 H        -2.493323         2.006076        -1.898051
 H        -1.635398         3.577519        -1.350639
 H        -0.689861         0.857450        -2.089377
 H         0.470881         2.131034        -1.386493
 H        -1.197528         3.180475         2.673570
 H        -1.968440         1.460283         3.071498
 H         0.059140         2.822408         0.979914
