19
Iteration:  1504
 O         0.329840        -0.140691         0.518525
 C        -0.661444         0.773580         0.178282
 C        -2.240820         0.598688         0.337431
 C        -2.076979         2.134968         0.266550
 C        -1.884163         2.402586        -1.219230
 C        -0.610758         1.356434        -1.262820
 O        -2.749857         2.809489         1.326363
 C        -1.703844         2.293182         2.311617
 C        -0.713717         2.000148         1.003120
 H         0.475034        -0.660730        -0.275869
 H        -2.794190         0.149698        -0.510522
 H        -2.521038         0.112914         1.274334
 H        -2.825569         1.929072        -1.626543
 H        -1.642932         3.354569        -1.537548
 H        -0.830166         0.510798        -1.974822
 H         0.289852         1.788242        -1.597208
 H        -1.443907         3.073825         2.887889
 H        -1.958348         1.281343         2.734788
 H         0.096698         2.701844         0.875671
