19
Iteration:  1486charge 0 multiplicity 1
 O         0.455766        -0.185888         0.418648
 C        -0.707881         0.739426         0.222547
 C        -2.208833         0.488010         0.317656
 C        -2.162205         2.103617         0.303844
 C        -1.818395         2.327547        -1.253304
 C        -0.679547         1.388550        -1.272755
 O        -2.707211         2.953434         1.389123
 C        -1.733789         2.301279         2.232566
 C        -0.812064         2.007229         1.086420
 H         0.265395        -0.943790        -0.139794
 H        -2.626696        -0.059191        -0.572486
 H        -2.569058         0.292792         1.315445
 H        -2.552330         2.045027        -1.992861
 H        -1.526089         3.434565        -1.348622
 H        -0.697224         0.671416        -2.150808
 H         0.255158         2.000708        -1.381536
 H        -1.201698         3.159250         2.955275
 H        -2.253670         1.620372         2.899668
 H        -0.171677         2.882980         0.992634
