19
Iteration:  1251
 O         0.328393        -0.275113         0.381684
 C        -0.604288         0.790017         0.180148
 C        -2.210838         0.553608         0.344617
 C        -2.135028         2.178855         0.282326
 C        -1.837422         2.409705        -1.161899
 C        -0.620959         1.359978        -1.277244
 O        -2.821830         2.809833         1.353774
 C        -1.642638         2.295591         2.221071
 C        -0.817798         2.038960         1.033442
 H         0.977327        -0.103011         1.096712
 H        -2.769880         0.202293        -0.522860
 H        -2.543223         0.261912         1.317297
 H        -2.636553         2.017156        -1.767851
 H        -1.549389         3.441354        -1.483279
 H        -0.727727         0.558250        -1.963693
 H         0.442810         1.790901        -1.396204
 H        -1.275997         3.105684         2.789211
 H        -2.095280         1.420526         2.898133
 H        -0.082391         2.874890         0.930237
