19
Iteration:  2026charge 0 multiplicity 1
 O         0.292923        -0.332152         0.264873
 C        -0.594965         0.754522         0.172758
 C        -2.122952         0.444480         0.335491
 C        -2.152961         2.105462         0.309618
 C        -1.869894         2.415360        -1.074388
 C        -0.689353         1.356573        -1.204826
 O        -2.803529         2.881104         1.316280
 C        -1.615028         2.489959         2.238776
 C        -0.763456         2.024272         1.042859
 H         0.456592        -0.417777         1.240044
 H        -2.541735         0.025133        -0.582736
 H        -2.673686         0.257342         1.297010
 H        -2.660174         2.080208        -1.783226
 H        -1.460088         3.387109        -1.247231
 H        -0.879045         0.506528        -1.854081
 H         0.213301         1.887988        -1.509697
 H        -1.168604         3.408982         2.681255
 H        -1.933293         1.845278         3.011194
 H        -0.060302         2.793220         0.737187
