19
Iteration:  4909charge 0 multiplicity 1
 O         0.270248        -0.248343         0.475227
 C        -0.589618         0.699494         0.120692
 C        -2.158625         0.548575         0.263823
 C        -2.082746         2.153042         0.298245
 C        -1.725372         2.642718        -1.079009
 C        -0.585346         1.502265        -1.323321
 O        -2.869773         2.740286         1.273611
 C        -1.836050         2.166152         2.275686
 C        -0.757465         1.934280         1.143762
 H         1.190858        -0.170261         0.140086
 H        -2.736417         0.107992        -0.642433
 H        -2.484715         0.063909         1.164748
 H        -2.463239         2.747613        -1.902492
 H        -1.258356         3.647379        -1.064783
 H        -1.054923         0.980654        -2.127341
 H         0.455231         1.811277        -1.508194
 H        -1.510072         2.944325         2.915208
 H        -2.326323         1.258935         2.772519
 H         0.017888         2.621056         1.015476
