19
Iteration:  2365
 O         0.277140        -0.310373         0.340157
 C        -0.617546         0.714010         0.093871
 C        -2.142487         0.508018         0.452190
 C        -2.150872         2.092753         0.369969
 C        -1.835756         2.446916        -1.145645
 C        -0.710679         1.315025        -1.337442
 O        -2.737857         2.879448         1.365643
 C        -1.739371         2.418183         2.283328
 C        -0.738551         2.082212         1.033167
 H         1.122600         0.124739         0.152583
 H        -2.737035        -0.089221        -0.264475
 H        -2.188131         0.026260         1.423853
 H        -2.652414         2.169088        -1.805676
 H        -1.461380         3.480172        -1.352966
 H        -1.014457         0.570613        -2.069930
 H         0.304291         1.654261        -1.694752
 H        -1.251185         3.239057         2.905987
 H        -2.078514         1.504785         2.745871
 H        -0.033509         2.935868         0.814896
