19
Iteration:   453
 O         0.405265        -0.235095         0.232218
 C        -0.665753         0.743320         0.265313
 C        -2.167173         0.511297         0.612677
 C        -2.075935         2.163386         0.248218
 C        -1.964693         2.270826        -1.252425
 C        -0.764538         1.300215        -1.213317
 O        -2.786888         2.863118         1.252385
 C        -1.594268         2.482307         2.222727
 C        -0.719638         2.111211         1.054492
 H         0.136990        -1.113069         0.599785
 H        -2.624665        -0.416003         0.035360
 H        -2.276162         0.411919         1.718375
 H        -2.907627         1.881970        -1.821844
 H        -1.600403         3.218142        -1.568935
 H        -0.767011         0.406811        -1.865450
 H         0.002561         2.024280        -1.441686
 H        -1.230672         3.460117         2.593171
 H        -1.928251         1.975083         3.119384
 H         0.149469         2.765779         0.755212
