19
Iteration:  4274charge 0 multiplicity 1
 O         0.293237        -0.259731         0.188099
 C        -0.695999         0.743719         0.191906
 C        -2.207552         0.549789         0.298996
 C        -2.108804         2.066207         0.384070
 C        -1.762356         2.466135        -1.162247
 C        -0.553817         1.515042        -1.218068
 O        -2.773843         2.843490         1.311639
 C        -1.815757         2.305616         2.294220
 C        -0.720437         1.896090         1.142632
 H         0.364471        -0.439708         1.138708
 H        -2.786375         0.131072        -0.549716
 H        -2.526140         0.272489         1.285107
 H        -2.426426         2.141683        -1.982192
 H        -1.478713         3.566084        -1.490051
 H        -0.482883         0.820089        -2.033526
 H         0.434202         2.064883        -1.287230
 H        -1.457370         3.151609         2.854834
 H        -2.267138         1.494031         2.946121
 H         0.111796         2.591644         1.074660
