19
Iteration:  2306
 O         0.211874        -0.295371         0.477241
 C        -0.644142         0.810109         0.125295
 C        -2.150862         0.581979         0.329818
 C        -2.132840         2.075703         0.320777
 C        -1.857978         2.378453        -1.213665
 C        -0.627134         1.327491        -1.311928
 O        -2.833979         2.756230         1.457385
 C        -1.478309         2.410153         2.232853
 C        -0.808191         2.133643         1.061434
 H         0.589937        -0.659711        -0.353395
 H        -2.666309         0.186928        -0.532845
 H        -2.429671        -0.004620         1.225371
 H        -2.760653         2.142323        -1.797104
 H        -1.434209         3.281912        -1.560543
 H        -0.678127         0.612175        -2.167354
 H         0.152538         2.060501        -1.567398
 H        -1.119110         3.283732         2.718798
 H        -1.745807         1.752487         3.041661
 H        -0.146450         3.004452         0.657012
