19
Iteration:   734
 O         0.373546        -0.295128         0.241712
 C        -0.672290         0.631619         0.219066
 C        -2.126051         0.474859         0.540987
 C        -2.011849         2.150273         0.260869
 C        -1.862795         2.413471        -1.136511
 C        -0.778756         1.357466        -1.242179
 O        -2.876232         2.790923         1.291432
 C        -1.737493         2.565907         2.146876
 C        -0.653808         2.042974         1.056949
 H         0.806068        -0.078855         1.106796
 H        -2.630947        -0.130313        -0.169290
 H        -2.471685         0.331278         1.555888
 H        -2.784070         1.916841        -1.658088
 H        -1.665835         3.351195        -1.534658
 H        -0.952079         0.452156        -1.917961
 H         0.253709         1.836225        -1.380183
 H        -1.175813         3.473713         2.518249
 H        -1.937639         2.064595         3.031134
 H         0.135858         2.853544         0.892833
