19
Iteration:  1246charge 0 multiplicity 1
 O         0.351840        -0.249277         0.362498
 C        -0.615805         0.778482         0.127576
 C        -2.220363         0.612112         0.399061
 C        -2.121843         2.198454         0.321806
 C        -1.817620         2.407296        -1.178241
 C        -0.618427         1.330867        -1.274249
 O        -2.856937         2.810962         1.334371
 C        -1.646386         2.259452         2.245096
 C        -0.813231         2.030433         1.017086
 H         0.829971        -0.081865         1.196343
 H        -2.676901        -0.053552        -0.410430
 H        -2.672283         0.236264         1.362975
 H        -2.740032         2.129148        -1.760007
 H        -1.481234         3.413879        -1.410749
 H        -0.571668         0.522671        -2.088367
 H         0.424432         1.646667        -1.310413
 H        -1.167786         3.074522         2.906237
 H        -2.132599         1.511116         2.716571
 H        -0.069373         2.857682         0.882999
