19
Iteration:  3396
 O         0.258875        -0.283420         0.318647
 C        -0.665532         0.746501         0.227988
 C        -2.205063         0.496391         0.232751
 C        -2.073869         2.111024         0.311518
 C        -1.741520         2.584986        -1.101598
 C        -0.613295         1.519028        -1.215874
 O        -2.771459         2.770416         1.306250
 C        -1.774592         2.312610         2.282523
 C        -0.789212         1.886596         1.120653
 H         1.083245        -0.041184        -0.146690
 H        -2.611519        -0.060792        -0.571076
 H        -2.340315         0.072199         1.253867
 H        -2.497645         2.271016        -1.811263
 H        -1.417194         3.666378        -1.166465
 H        -0.889518         0.768382        -1.943694
 H         0.318999         2.007500        -1.540731
 H        -1.537751         3.109079         2.958442
 H        -2.024382         1.427580         2.877080
 H        -0.110422         2.744820         0.936946
