19
Iteration:  3868
 O         0.188739        -0.264300         0.313127
 C        -0.671125         0.752400         0.144558
 C        -2.137954         0.482604         0.354974
 C        -2.111639         2.109386         0.298902
 C        -1.683322         2.540916        -1.153630
 C        -0.575689         1.473849        -1.251296
 O        -2.826168         2.772618         1.346523
 C        -1.767712         2.303474         2.278166
 C        -0.729266         1.952557         1.094559
 H         1.087215         0.055106         0.094520
 H        -2.669287        -0.081176        -0.369350
 H        -2.566623         0.175427         1.322813
 H        -2.535601         2.416440        -1.910250
 H        -1.442296         3.548462        -0.967586
 H        -0.964177         0.839255        -2.179241
 H         0.458224         1.891322        -1.367593
 H        -1.603017         3.154960         3.003656
 H        -2.063775         1.316442         2.628404
 H         0.033657         2.810155         1.132478
