19
Iteration:   748
 O         0.325112        -0.339719         0.279020
 C        -0.624939         0.742213         0.181842
 C        -2.118045         0.577366         0.471083
 C        -2.131346         2.063345         0.353353
 C        -1.950994         2.339223        -1.190775
 C        -0.659027         1.309369        -1.227631
 O        -2.834381         2.769718         1.269447
 C        -1.656960         2.608383         2.230926
 C        -0.721928         2.021954         1.057377
 H         1.106987        -0.040365         0.748192
 H        -2.843566         0.044550        -0.166456
 H        -2.187437         0.307398         1.550443
 H        -2.795485         2.298224        -1.895545
 H        -1.519753         3.345713        -1.201464
 H        -0.738110         0.595131        -2.029499
 H         0.285428         1.860517        -1.500408
 H        -1.451824         3.692322         2.401772
 H        -2.006338         2.012558         3.110948
 H         0.072805         2.697427         0.824603
