19
Iteration:  2800
 O         0.178989        -0.353774         0.528395
 C        -0.655063         0.767431         0.046677
 C        -2.102084         0.503327         0.324275
 C        -2.160185         2.150160         0.284551
 C        -1.962185         2.374278        -1.176687
 C        -0.567639         1.431045        -1.292883
 O        -2.739616         2.814434         1.493745
 C        -1.625343         2.401775         2.221016
 C        -0.763543         2.064057         0.939097
 H         1.038244        -0.306807         0.037827
 H        -2.551304         0.020641        -0.554121
 H        -2.290715        -0.005014         1.303726
 H        -2.673337         1.991965        -1.902840
 H        -1.712113         3.407951        -1.266520
 H        -0.701696         0.763427        -2.135442
 H         0.319016         2.077431        -1.323214
 H        -1.143008         3.371302         2.572777
 H        -1.773981         1.693782         3.076141
 H        -0.097244         2.952054         0.832544
