19
Iteration:  3777charge 0 multiplicity 1
 O         0.315921        -0.341343         0.421080
 C        -0.626216         0.773225         0.165846
 C        -2.185317         0.480149         0.228433
 C        -2.071335         2.236523         0.300053
 C        -1.814110         2.557749        -1.208937
 C        -0.674635         1.473171        -1.287066
 O        -2.792359         2.815202         1.430226
 C        -1.774454         2.181068         2.258766
 C        -0.784951         2.016331         1.110478
 H         1.239638        -0.033462         0.502222
 H        -2.601536         0.022659        -0.720939
 H        -2.698611         0.011583         1.065840
 H        -2.542432         2.455912        -1.980581
 H        -1.238842         3.432447        -1.328215
 H        -0.697766         0.753309        -2.068030
 H         0.332616         1.969816        -1.281473
 H        -1.418197         2.869708         3.069566
 H        -2.087706         1.179118         2.583403
 H        -0.077919         2.784601         0.871061
