19
Iteration:  1952
 O         0.273661        -0.260885         0.448201
 C        -0.661594         0.756329         0.139162
 C        -2.245100         0.484081         0.311217
 C        -2.074167         2.066242         0.281751
 C        -1.896142         2.419295        -1.128148
 C        -0.687046         1.391340        -1.281163
 O        -2.736105         2.750075         1.358834
 C        -1.574341         2.479573         2.238726
 C        -0.743965         2.091127         0.955465
 H         0.009024        -0.596140         1.303136
 H        -2.583821        -0.171967        -0.558537
 H        -2.507419        -0.035689         1.261016
 H        -2.730214         2.295922        -1.845742
 H        -1.508881         3.469625        -1.132250
 H        -0.815087         0.635432        -2.073293
 H         0.254021         1.957425        -1.515544
 H        -0.998061         3.331406         2.691648
 H        -1.799506         1.850039         3.151533
 H         0.087186         2.826461         0.736121
