19
Iteration:  1710charge 0 multiplicity 1
 O         0.309928        -0.335206         0.405848
 C        -0.590661         0.792019         0.193672
 C        -2.155158         0.550882         0.399061
 C        -2.172656         2.080606         0.257407
 C        -1.872085         2.414265        -1.188328
 C        -0.656681         1.404995        -1.235079
 O        -2.802686         2.845222         1.315838
 C        -1.674399         2.430796         2.227991
 C        -0.733315         2.029789         1.073821
 H         0.594653        -0.670177        -0.484414
 H        -2.670796        -0.144574        -0.258601
 H        -2.313771         0.226476         1.399377
 H        -2.663964         2.173539        -1.913921
 H        -1.577052         3.386753        -1.270018
 H        -0.726864         0.586301        -1.948713
 H         0.278602         1.894523        -1.344854
 H        -1.214761         3.178420         2.817939
 H        -2.203209         1.656417         2.748427
 H         0.059090         2.761162         1.106968
