19
Iteration:   123
 O         0.445180        -0.075937         0.546279
 C        -0.623398         0.740104         0.154956
 C        -2.214125         0.505230         0.298986
 C        -2.143333         2.106063         0.231590
 C        -1.981076         2.361159        -1.259898
 C        -0.744280         1.262457        -1.266085
 O        -2.695891         2.825775         1.460871
 C        -1.617588         2.431987         2.295293
 C        -0.791910         2.028992         0.958418
 H         0.368102        -0.839350        -0.041897
 H        -2.733496         0.044083        -0.586785
 H        -2.776323         0.058260         1.181907
 H        -2.673676         1.938648        -1.950370
 H        -1.672189         3.348832        -1.658403
 H        -0.931655         0.472461        -1.902533
 H         0.301606         1.665905        -1.523380
 H        -1.082198         3.239247         2.789107
 H        -1.988853         1.689421         3.030362
 H         0.015667         2.810449         0.739873
