19
Iteration:  3608
 O         0.343968        -0.331226         0.364376
 C        -0.666663         0.690464         0.213093
 C        -2.204242         0.485675         0.144485
 C        -2.079812         2.153974         0.255685
 C        -1.828958         2.580090        -1.105306
 C        -0.586679         1.532484        -1.277713
 O        -2.831934         2.811952         1.396069
 C        -1.683418         2.279226         2.300446
 C        -0.845013         1.911678         1.102785
 H         1.166725         0.088507         0.672077
 H        -2.738108         0.077305        -0.815772
 H        -2.914318         0.113565         0.980571
 H        -2.729497         2.457677        -1.793995
 H        -1.459535         3.614238        -1.242389
 H        -0.470699         0.678080        -2.094431
 H         0.424629         1.945402        -1.209817
 H        -1.286915         3.248050         2.756668
 H        -2.022809         1.463313         3.026212
 H        -0.008999         2.658920         1.090725
