19
Iteration:  4669
 O         0.377651        -0.200384         0.293153
 C        -0.670648         0.691419         0.202036
 C        -2.215925         0.569198         0.201143
 C        -2.084702         2.078719         0.355713
 C        -1.714896         2.556755        -1.082575
 C        -0.604114         1.351536        -1.160837
 O        -2.864763         2.833113         1.323226
 C        -1.798340         2.320685         2.293400
 C        -0.737908         1.930065         1.145929
 H         0.646408        -0.536301        -0.565045
 H        -2.765786         0.028213        -0.642306
 H        -2.467993        -0.031613         1.051370
 H        -2.399161         2.501651        -1.948286
 H        -1.320054         3.626363        -1.160558
 H        -0.852261         0.542070        -1.908492
 H         0.358872         1.825109        -1.503782
 H        -1.542923         3.235520         2.699388
 H        -2.300804         1.552939         2.931915
 H        -0.222690         2.799544         0.873398
