19
Iteration:  1051charge 0 multiplicity 1
 O         0.279288        -0.256508         0.353566
 C        -0.649334         0.726082         0.138792
 C        -2.099700         0.549345         0.286975
 C        -2.038815         2.164664         0.285271
 C        -1.847993         2.419720        -1.242386
 C        -0.579187         1.362785        -1.221163
 O        -2.868382         2.681211         1.374870
 C        -1.670249         2.461850         2.337158
 C        -0.802316         2.131446         1.066105
 H         0.029797        -0.800009         1.140703
 H        -2.433940        -0.009575        -0.574647
 H        -2.348027         0.125837         1.235756
 H        -2.780590         1.972545        -1.678877
 H        -1.728633         3.388990        -1.686855
 H        -0.691420         0.588060        -1.931692
 H         0.367729         1.893554        -1.334780
 H        -1.485237         3.449267         2.921923
 H        -1.769007         1.557366         2.947526
 H        -0.063876         2.895981         0.632988
