19
Iteration:  3269charge 0 multiplicity 1
 O         0.250030        -0.307267         0.149899
 C        -0.688234         0.753273         0.225824
 C        -2.155269         0.648734         0.372746
 C        -2.118101         2.123911         0.310096
 C        -1.700045         2.510352        -1.117467
 C        -0.514569         1.438674        -1.174649
 O        -2.809255         2.709214         1.363648
 C        -1.783490         2.261163         2.261250
 C        -0.770227         2.083080         1.052065
 H         0.671885        -0.579040         0.982522
 H        -2.675957         0.191399        -0.488255
 H        -2.493879         0.152896         1.227022
 H        -2.575140         2.341283        -1.823203
 H        -1.433667         3.495696        -1.368691
 H        -1.001508         0.711108        -1.889856
 H         0.459903         1.736540        -1.510390
 H        -1.569979         3.098326         2.988822
 H        -2.094157         1.288326         2.719088
 H        -0.160270         2.947436         0.920067
