19
Iteration:   291
 O         0.322264        -0.289742         0.395168
 C        -0.649726         0.770815         0.215160
 C        -2.081128         0.491709         0.362085
 C        -2.132245         2.074134         0.263646
 C        -2.033687         2.305084        -1.238421
 C        -0.666643         1.345741        -1.273384
 O        -2.797829         2.734604         1.449785
 C        -1.523218         2.655380         2.277600
 C        -0.726935         2.128730         0.934876
 H        -0.150403        -1.129574         0.380355
 H        -2.577750        -0.258292        -0.312418
 H        -2.437017         0.205498         1.360061
 H        -2.784477         1.773767        -1.862204
 H        -1.781931         3.288759        -1.550161
 H        -0.834443         0.518957        -2.034635
 H         0.204860         1.952734        -1.378102
 H        -1.288249         3.723301         2.480333
 H        -1.624438         2.244046         3.312582
 H         0.069855         2.950705         0.727815
