19
Iteration:  1008
 O         0.318596        -0.267147         0.395090
 C        -0.649705         0.717003         0.131087
 C        -2.091063         0.376434         0.403931
 C        -2.156678         2.083467         0.304797
 C        -1.894347         2.415991        -1.135048
 C        -0.544392         1.521628        -1.196058
 O        -2.857948         2.826360         1.288945
 C        -1.637652         2.423385         2.235677
 C        -0.775886         2.069993         0.977607
 H        -0.122783        -1.149721         0.357434
 H        -2.788763        -0.210284        -0.163282
 H        -2.142452         0.236028         1.454145
 H        -2.616766         1.962366        -1.896789
 H        -1.706810         3.441812        -1.440912
 H        -0.497360         0.924314        -2.077966
 H         0.392570         2.126429        -1.077064
 H        -1.258141         3.386726         2.713921
 H        -2.092556         1.682619         2.875470
 H        -0.119377         3.005045         0.782966
