19
Iteration:   323charge 0 multiplicity 1
 O         0.377652        -0.253158         0.303028
 C        -0.633833         0.744942         0.164698
 C        -2.155895         0.452887         0.630966
 C        -2.195923         1.993368         0.375783
 C        -2.054003         2.246107        -1.075245
 C        -0.639015         1.418234        -1.213117
 O        -2.779304         2.988870         1.218165
 C        -1.626465         2.477439         2.173464
 C        -0.629821         2.077431         0.922515
 H         0.202585        -1.160428         0.004757
 H        -2.740092        -0.221189        -0.091056
 H        -2.152409         0.448551         1.705269
 H        -2.803335         1.970903        -1.904499
 H        -1.848620         3.261588        -1.175572
 H        -0.649430         0.765639        -2.142396
 H         0.322602         1.927146        -1.213749
 H        -1.308512         3.411271         2.632259
 H        -2.108581         1.707686         2.736670
 H         0.154839         2.845869         0.497821
