19
Iteration:  1887charge 0 multiplicity 1
 O         0.306662        -0.323252         0.309389
 C        -0.662097         0.775764         0.217901
 C        -2.192439         0.486625         0.367927
 C        -2.084828         2.139895         0.282817
 C        -1.872409         2.345678        -1.144111
 C        -0.659259         1.363182        -1.247915
 O        -2.783394         2.968882         1.364336
 C        -1.708643         2.367497         2.181094
 C        -0.700066         2.020942         1.049792
 H         0.985315         0.001752         0.952848
 H        -2.628391        -0.053329        -0.513424
 H        -2.418781         0.052711         1.378005
 H        -2.663892         1.925764        -1.813135
 H        -1.633050         3.406615        -1.335775
 H        -0.983528         0.498418        -1.882557
 H         0.226154         1.854877        -1.701928
 H        -1.262233         3.169191         2.818078
 H        -2.168767         1.706263         3.034856
 H         0.150081         2.762044         0.927247
