19
Iteration:  1596
 O         0.371532        -0.262418         0.359300
 C        -0.649334         0.713501         0.170505
 C        -2.182873         0.498879         0.401784
 C        -2.060562         2.087486         0.261816
 C        -1.906589         2.368091        -1.231240
 C        -0.665934         1.388450        -1.207219
 O        -2.749782         2.890448         1.327293
 C        -1.764591         2.435569         2.302771
 C        -0.766018         2.041450         1.091314
 H         0.612591        -0.820168        -0.422998
 H        -2.694221        -0.072563        -0.399007
 H        -2.484426         0.108864         1.425614
 H        -2.764777         2.175838        -1.811138
 H        -1.423586         3.400102        -1.387155
 H        -0.516275         0.633965        -1.989335
 H         0.194933         2.113367        -1.258244
 H        -1.491240         3.419913         2.829283
 H        -2.150683         1.589765         2.808897
 H         0.141500         2.651343         0.884228
