19
Iteration:   446charge 0 multiplicity 1
 O         0.422356        -0.233873         0.288698
 C        -0.708622         0.724303         0.255847
 C        -2.144203         0.530533         0.546461
 C        -2.075990         2.130403         0.276259
 C        -2.017379         2.232434        -1.253033
 C        -0.771544         1.325648        -1.238693
 O        -2.781673         2.835913         1.255293
 C        -1.573339         2.555965         2.228905
 C        -0.676434         2.086451         1.057140
 H         0.074136        -1.126253         0.484282
 H        -2.824519        -0.053460        -0.064324
 H        -2.357857         0.383515         1.614515
 H        -2.837474         1.912114        -1.796256
 H        -1.754233         3.283153        -1.615699
 H        -0.686080         0.516502        -1.983812
 H         0.118798         1.930755        -1.449292
 H        -1.299584         3.480487         2.662791
 H        -1.825131         1.880090         3.118297
 H         0.176931         2.782744         0.982339
