19
Iteration:  4191charge 0 multiplicity 1
 O         0.333122        -0.285232         0.423769
 C        -0.671528         0.690412         0.147875
 C        -2.226657         0.601121         0.173798
 C        -2.154688         2.097498         0.306323
 C        -1.738073         2.592602        -1.137362
 C        -0.540186         1.499070        -1.292718
 O        -2.859160         2.692522         1.477958
 C        -1.670937         2.310907         2.207033
 C        -0.813429         1.999550         1.024028
 H         0.106416        -0.573162         1.336202
 H        -2.658894         0.057655        -0.661389
 H        -2.738647         0.055640         1.040398
 H        -2.460765         2.590885        -1.963102
 H        -1.227892         3.527183        -1.111429
 H        -0.839185         0.778686        -2.109844
 H         0.474332         1.965058        -1.568058
 H        -1.217111         3.102481         2.846077
 H        -1.825695         1.435834         2.929741
 H         0.007462         2.692889         0.825430
