19
Iteration:  4487
 O         0.288700        -0.282729         0.421642
 C        -0.703289         0.736229         0.229212
 C        -2.203959         0.495604         0.235377
 C        -2.129589         2.187601         0.293851
 C        -1.820118         2.527454        -1.208207
 C        -0.549197         1.556342        -1.223496
 O        -2.783121         2.775001         1.392093
 C        -1.649288         2.160260         2.205658
 C        -0.781719         2.008417         1.020600
 H         0.281040        -0.607299         1.359591
 H        -2.695814         0.027693        -0.653588
 H        -2.596448         0.124390         1.148787
 H        -2.610631         2.442443        -2.051916
 H        -1.632551         3.591002        -1.295533
 H        -0.647523         1.089210        -2.281041
 H         0.421154         2.025566        -1.344193
 H        -1.374643         3.018916         2.899293
 H        -1.889448         1.290863         2.774322
 H         0.121120         2.702439         0.927220
