19
Iteration:   415charge 0 multiplicity 1
 O         0.313599        -0.237524         0.598335
 C        -0.643306         0.772675         0.154284
 C        -2.123680         0.408960         0.347842
 C        -2.208068         2.057618         0.338119
 C        -1.988027         2.255151        -1.176405
 C        -0.715538         1.346119        -1.326176
 O        -2.760489         2.870957         1.388241
 C        -1.422253         2.537235         2.213185
 C        -0.790717         2.153236         0.876974
 H         0.120741        -0.976720        -0.006993
 H        -2.667342        -0.090261        -0.370080
 H        -2.236232         0.063150         1.360294
 H        -2.834706         2.061363        -1.770378
 H        -1.643689         3.324457        -1.399658
 H        -0.838246         0.509166        -2.023025
 H         0.191967         1.941702        -1.654855
 H        -0.991445         3.509760         2.465296
 H        -1.587205         1.776774         2.996982
 H        -0.243479         3.024246         0.633348
