19
Iteration:  1173
 O         0.280938        -0.311443         0.347391
 C        -0.647379         0.784849         0.170501
 C        -2.165924         0.510234         0.394865
 C        -2.113830         2.028027         0.202816
 C        -1.856397         2.407170        -1.142851
 C        -0.512616         1.503120        -1.231500
 O        -2.828889         2.720832         1.372300
 C        -1.680395         2.498896         2.260884
 C        -0.759384         2.053110         1.021387
 H        -0.181512        -1.130313         0.642274
 H        -2.654691        -0.176108        -0.274346
 H        -2.489825         0.254804         1.402285
 H        -2.545670         1.963702        -1.823476
 H        -1.680304         3.493192        -1.311283
 H        -0.513868         0.840056        -2.028308
 H         0.453560         2.102924        -1.376846
 H        -1.337039         3.530886         2.510287
 H        -1.844405         1.906030         3.243316
 H        -0.186580         2.883213         0.524881
