19
Iteration:   499
 O         0.390934        -0.289200         0.432008
 C        -0.615265         0.750980         0.144587
 C        -2.168356         0.482098         0.392855
 C        -2.090761         2.092523         0.332341
 C        -1.967248         2.341829        -1.112197
 C        -0.780509         1.240867        -1.358478
 O        -2.765880         2.829207         1.358405
 C        -1.604300         2.614490         2.222961
 C        -0.736095         2.037648         0.936152
 H         0.897250        -0.066253         1.231977
 H        -2.702400         0.079011        -0.516377
 H        -2.591647         0.209027         1.392774
 H        -2.884581         2.048817        -1.605359
 H        -1.614838         3.360739        -1.425054
 H        -1.070110         0.367363        -1.960453
 H         0.096601         1.691958        -1.731158
 H        -1.202950         3.525816         2.519949
 H        -1.857053         2.129364         3.177834
 H        -0.096519         2.929953         0.706731
