19
Iteration:   617
 O         0.375750        -0.258662         0.347601
 C        -0.679511         0.729009         0.208250
 C        -2.107420         0.481352         0.522393
 C        -2.240133         2.060552         0.326748
 C        -1.823421         2.272156        -1.211817
 C        -0.642687         1.246976        -1.253397
 O        -2.772516         2.902716         1.397032
 C        -1.620994         2.581507         2.205610
 C        -0.898476         2.110251         0.955348
 H         0.740637        -0.346790        -0.555768
 H        -2.573708        -0.205571        -0.271660
 H        -2.478885         0.225036         1.570009
 H        -2.602841         2.129647        -2.048121
 H        -1.321538         3.251571        -1.253765
 H        -0.855038         0.346777        -1.904879
 H         0.271966         1.852010        -1.555287
 H        -1.097941         3.570639         2.659590
 H        -1.941696         1.900489         3.064129
 H        -0.223759         2.837410         0.490689
