19
Iteration:  2653charge 0 multiplicity 1
 O         0.259892        -0.327472         0.339886
 C        -0.626540         0.813369         0.252967
 C        -2.107067         0.510483         0.410275
 C        -2.160010         2.121515         0.354587
 C        -1.892931         2.353274        -1.244091
 C        -0.627308         1.433301        -1.243158
 O        -2.826852         2.785001         1.450247
 C        -1.496424         2.459602         2.208839
 C        -0.749198         2.125770         0.947603
 H        -0.291853        -1.003926        -0.088524
 H        -2.593137        -0.074433        -0.387324
 H        -2.506238        -0.127348         1.264880
 H        -2.858100         2.059106        -1.731735
 H        -1.780873         3.451554        -1.479417
 H        -0.734465         0.521696        -1.889701
 H         0.329602         1.823822        -1.510942
 H        -1.288550         3.390157         2.689753
 H        -1.667584         1.607217         2.938409
 H        -0.198354         2.876179         0.455097
