19
Iteration:  4827
 O         0.290334        -0.441329         0.237481
 C        -0.661845         0.766460         0.189055
 C        -2.174258         0.563189         0.196308
 C        -2.161248         2.059196         0.287139
 C        -1.808828         2.530355        -1.101189
 C        -0.514269         1.665887        -1.135443
 O        -2.853533         2.764421         1.249024
 C        -1.782238         2.331926         2.284157
 C        -0.705862         1.963766         1.187260
 H         0.650499        -0.550019         1.122148
 H        -2.599150         0.046835        -0.576777
 H        -2.364057        -0.121172         1.084296
 H        -2.642017         2.228617        -1.746203
 H        -1.440432         3.538640        -1.134422
 H        -0.299203         1.029874        -1.996172
 H         0.409911         2.248788        -1.168464
 H        -1.633454         3.343612         2.830160
 H        -2.215219         1.531581         2.863878
 H         0.260178         2.604969         1.176974
