19
Iteration:  4674
 O         0.346367        -0.187760         0.253334
 C        -0.653776         0.706708         0.215629
 C        -2.276895         0.543649         0.208837
 C        -2.085027         2.091712         0.329083
 C        -1.662803         2.526877        -1.114805
 C        -0.560131         1.386786        -1.142309
 O        -2.897691         2.815286         1.328006
 C        -1.786300         2.304529         2.285288
 C        -0.741434         1.935463         1.177400
 H         0.724591        -0.619951        -0.543322
 H        -2.698674         0.119118        -0.688392
 H        -2.486693         0.129167         1.257244
 H        -2.504381         2.324517        -1.879911
 H        -1.511384         3.582817        -1.262413
 H        -0.887185         0.602469        -1.864517
 H         0.383666         1.772152        -1.464837
 H        -1.369185         3.300835         2.842249
 H        -2.196963         1.631497         3.065530
 H        -0.017846         2.815086         0.870735
