19
Iteration:  2293
 O         0.212185        -0.293458         0.437651
 C        -0.642158         0.774967         0.138331
 C        -2.131200         0.552128         0.412645
 C        -2.152362         2.122371         0.320870
 C        -1.847997         2.394137        -1.162398
 C        -0.620298         1.419163        -1.316719
 O        -2.824839         2.735958         1.407336
 C        -1.636273         2.464291         2.285563
 C        -0.655529         2.051904         0.909877
 H         0.401532        -0.761463        -0.385129
 H        -2.753375        -0.083213        -0.300164
 H        -2.230124         0.266747         1.463102
 H        -2.633504         2.087396        -1.876630
 H        -1.685239         3.455014        -1.270795
 H        -0.934875         0.583446        -1.995776
 H         0.370776         1.766105        -1.545540
 H        -1.267221         3.345401         2.659692
 H        -1.865084         1.686662         3.023333
 H         0.046698         2.873511         0.795640
