19
Iteration:  4575
 O         0.268310        -0.275563         0.364246
 C        -0.643116         0.759600         0.157767
 C        -2.133373         0.511726         0.218066
 C        -2.082961         2.132655         0.262986
 C        -1.779313         2.479572        -1.142429
 C        -0.519978         1.536870        -1.236637
 O        -2.904135         2.735943         1.455574
 C        -1.714407         2.299806         2.277578
 C        -0.754168         1.989587         1.058016
 H        -0.260309        -1.107346         0.403966
 H        -2.690963        -0.052242        -0.509007
 H        -2.581670         0.261051         1.162398
 H        -2.494652         2.494506        -1.989975
 H        -1.382603         3.476605        -1.191706
 H        -0.512516         0.916892        -2.175281
 H         0.390032         2.062733        -1.202963
 H        -1.337276         3.295795         2.638003
 H        -1.879829         1.505437         2.951595
 H        -0.129905         2.906274         0.794635
