19
Iteration:  3332
 O         0.186018        -0.320532         0.427252
 C        -0.665709         0.725681         0.169632
 C        -2.220718         0.519290         0.224656
 C        -2.151060         2.122888         0.297083
 C        -1.810970         2.577525        -1.100395
 C        -0.538409         1.554686        -1.224081
 O        -2.814362         2.741131         1.348921
 C        -1.624854         2.249990         2.257885
 C        -0.751946         1.975896         1.043657
 H         1.041233         0.110554         0.263958
 H        -2.671810         0.111786        -0.683617
 H        -2.485963        -0.211290         1.066358
 H        -2.553892         2.480606        -1.893554
 H        -1.347220         3.546468        -1.108267
 H        -0.487825         0.913844        -2.134266
 H         0.421871         2.091173        -1.160398
 H        -1.354825         3.136563         2.849942
 H        -1.968980         1.361714         2.842640
 H         0.033719         2.657428         0.660750
