19
Iteration:   995
 O         0.437726        -0.209035         0.375025
 C        -0.652757         0.741533         0.167725
 C        -2.221310         0.446533         0.391575
 C        -2.148451         2.071807         0.278372
 C        -1.806391         2.347739        -1.183411
 C        -0.619574         1.420383        -1.238245
 O        -2.754360         2.829574         1.330419
 C        -1.740117         2.438718         2.278592
 C        -0.856297         2.097867         1.022617
 H         0.086880        -1.055488         0.083134
 H        -2.736046        -0.130085        -0.390299
 H        -2.471881        -0.026192         1.357625
 H        -2.646202         2.245435        -1.940516
 H        -1.494906         3.354320        -1.104612
 H        -0.643590         0.686833        -2.078293
 H         0.254369         2.000509        -1.426207
 H        -1.384724         3.369782         2.901633
 H        -1.914897         1.675130         3.054030
 H        -0.019406         2.827844         0.788413
