19
Iteration:   647
 O         0.296319        -0.226856         0.603388
 C        -0.673729         0.768850         0.186137
 C        -2.117792         0.548292         0.403940
 C        -2.128131         2.096737         0.342885
 C        -1.972795         2.310329        -1.162451
 C        -0.666538         1.336913        -1.319551
 O        -2.823011         2.739069         1.369197
 C        -1.533771         2.522210         2.124272
 C        -0.689137         2.100069         0.896553
 H         0.506875        -0.901950        -0.081668
 H        -2.617351         0.074895        -0.417615
 H        -2.498465         0.152993         1.323758
 H        -2.845907         1.961604        -1.832995
 H        -1.778075         3.313312        -1.411967
 H        -0.904022         0.463645        -2.016626
 H         0.132311         2.018539        -1.719727
 H        -1.140508         3.530536         2.560716
 H        -1.703400         1.776747         2.904285
 H         0.078496         2.861391         0.620993
