19
Iteration:  3017charge 0 multiplicity 1
 O         0.371455        -0.235805         0.303769
 C        -0.632497         0.695892         0.165012
 C        -2.288032         0.456846         0.250201
 C        -2.174112         2.102939         0.312273
 C        -1.832316         2.411360        -1.100437
 C        -0.618098         1.428799        -1.147147
 O        -2.753709         2.842835         1.359167
 C        -1.646037         2.438573         2.319108
 C        -0.775024         1.982857         1.074867
 H         0.680893        -0.576298        -0.548786
 H        -2.660959         0.010596        -0.634788
 H        -2.708486        -0.069739         1.219890
 H        -2.683152         2.281363        -1.870292
 H        -1.586579         3.436168        -1.354014
 H        -0.796874         0.732109        -1.986946
 H         0.364312         1.886155        -1.441523
 H        -1.319640         3.365875         2.836104
 H        -1.964773         1.825636         3.125357
 H        -0.192292         2.834460         0.707979
