19
Iteration:  3813
 O         0.138776        -0.312811         0.352929
 C        -0.688994         0.779985         0.081396
 C        -2.188547         0.463832         0.230115
 C        -2.112477         2.074447         0.330371
 C        -1.739254         2.486521        -1.181259
 C        -0.496866         1.584862        -1.219084
 O        -2.802369         2.707401         1.398152
 C        -1.669298         2.337497         2.292346
 C        -0.780737         1.959161         1.054235
 H         0.837298        -0.010545         0.960202
 H        -2.720572         0.004142        -0.557632
 H        -2.424823         0.007912         1.220315
 H        -2.708767         2.480097        -1.830798
 H        -1.428596         3.507805        -1.241291
 H        -0.350262         0.914408        -2.184822
 H         0.357811         2.306915        -1.232724
 H        -1.313035         3.289254         2.813665
 H        -1.867878         1.636652         3.104975
 H        -0.237907         2.947552         1.007046
