19
Iteration:  3291charge 0 multiplicity 1
 O         0.173230        -0.379542         0.228642
 C        -0.621685         0.774491         0.130637
 C        -2.135429         0.466395         0.230118
 C        -2.128640         2.095677         0.329446
 C        -1.793668         2.523445        -1.133852
 C        -0.530484         1.529975        -1.178744
 O        -2.871710         2.747933         1.355476
 C        -1.669710         2.417454         2.322203
 C        -0.745088         1.982621         1.138303
 H         0.852128        -0.344127         0.927548
 H        -2.570114        -0.066076        -0.662097
 H        -2.609437         0.047547         1.039901
 H        -2.643977         2.443936        -1.882650
 H        -1.488193         3.512230        -1.355018
 H        -0.466534         0.836391        -2.085913
 H         0.291911         2.215300        -1.158184
 H        -1.300312         3.360991         2.833602
 H        -2.025009         1.562960         2.910613
 H         0.043251         2.694580         1.162480
