19
Iteration:  4634charge 0 multiplicity 1
 O         0.295275        -0.245859         0.565147
 C        -0.646252         0.728333         0.128713
 C        -2.141895         0.499820         0.279088
 C        -2.149421         2.118796         0.287562
 C        -1.797068         2.638754        -1.151086
 C        -0.599661         1.537391        -1.331521
 O        -2.804097         2.789748         1.357370
 C        -1.735472         2.196180         2.230554
 C        -0.764066         1.932519         1.036747
 H         0.314945        -0.661403        -0.310148
 H        -2.732188        -0.063503        -0.475413
 H        -2.222491         0.161585         1.328221
 H        -2.461750         2.466735        -1.956830
 H        -1.295462         3.612730        -1.080189
 H        -0.904850         0.784507        -2.016729
 H         0.527988         1.823755        -1.512285
 H        -1.427879         2.834739         2.998627
 H        -2.006517         1.342086         2.830008
 H        -0.226537         2.824305         0.820083
