19
Iteration:  1844
 O         0.247252        -0.300227         0.319955
 C        -0.622935         0.789154         0.209042
 C        -2.196714         0.476391         0.433470
 C        -2.185862         2.103873         0.330022
 C        -1.877147         2.354370        -1.146302
 C        -0.602825         1.415411        -1.258605
 O        -2.727538         2.906565         1.330537
 C        -1.659235         2.417688         2.145615
 C        -0.770954         1.966982         1.041463
 H         1.098532        -0.023695         0.735788
 H        -2.736201         0.118562        -0.476910
 H        -2.418322        -0.045361         1.421837
 H        -2.670085         1.950584        -1.813303
 H        -1.539493         3.398369        -1.404881
 H        -0.779607         0.610854        -2.015267
 H         0.376565         1.931116        -1.289959
 H        -1.244710         3.321839         2.677149
 H        -1.960916         1.540216         2.891974
 H        -0.038307         2.856157         0.944134
