19
Iteration:  1924charge 0 multiplicity 1
 O         0.247109        -0.345807         0.455915
 C        -0.683675         0.717981         0.145712
 C        -2.210908         0.562945         0.389686
 C        -2.092582         2.149441         0.224509
 C        -1.805863         2.469282        -1.197870
 C        -0.652343         1.383456        -1.281134
 O        -2.896088         2.655355         1.528540
 C        -1.579169         2.492548         2.149868
 C        -0.689632         2.104012         0.885201
 H         0.498069        -0.134363         1.361187
 H        -2.623964        -0.165757        -0.304403
 H        -2.439176         0.224484         1.378105
 H        -2.549764         2.321675        -1.967786
 H        -1.459930         3.543565        -1.327530
 H        -0.843061         0.696345        -2.115355
 H         0.333686         1.843214        -1.515741
 H        -1.021541         3.401199         2.536456
 H        -1.712406         1.627523         2.834641
 H         0.182161         2.772090         0.717856
