19
Iteration:  3993charge 0 multiplicity 1
 O         0.343245        -0.259686         0.225722
 C        -0.701958         0.697274         0.150038
 C        -2.265574         0.469298         0.226368
 C        -2.043820         2.137921         0.284690
 C        -1.764454         2.537710        -1.140600
 C        -0.561136         1.500301        -1.212942
 O        -2.844429         2.757449         1.354386
 C        -1.772025         2.342719         2.323295
 C        -0.759564         1.947267         1.178086
 H         0.766352        -0.171786         1.093953
 H        -2.669031         0.181482        -0.761816
 H        -2.677473         0.165980         1.177062
 H        -2.538982         2.199616        -1.779930
 H        -1.464844         3.634000        -1.407969
 H        -0.707551         0.799056        -2.023280
 H         0.454238         1.952444        -1.333876
 H        -1.416616         3.207847         2.813184
 H        -2.026942         1.568662         3.090241
 H         0.138284         2.550452         1.274014
