19
Iteration:  1149
 O         0.269906        -0.321597         0.286794
 C        -0.672311         0.821817         0.173746
 C        -2.133918         0.531070         0.470580
 C        -2.131047         2.143595         0.252937
 C        -1.820222         2.352284        -1.261053
 C        -0.557280         1.454026        -1.156340
 O        -2.902413         2.712790         1.403705
 C        -1.655075         2.433089         2.181731
 C        -0.720131         2.143983         1.045771
 H        -0.073635        -0.912672         0.994325
 H        -2.567027         0.011845        -0.394340
 H        -2.334988        -0.052079         1.364640
 H        -2.558308         1.920354        -1.961549
 H        -1.492873         3.327683        -1.546848
 H        -0.408278         0.728698        -1.995678
 H         0.322328         2.131681        -1.223655
 H        -1.320510         3.302012         2.912781
 H        -1.873376         1.523394         2.747156
 H         0.121042         2.850733         0.702732
