19
Iteration:  1829
 O         0.192758        -0.338580         0.377402
 C        -0.682686         0.700356         0.174331
 C        -2.115242         0.527806         0.276121
 C        -2.110989         2.102502         0.312400
 C        -1.832335         2.363258        -1.182577
 C        -0.629575         1.342213        -1.210142
 O        -2.863726         2.815711         1.410011
 C        -1.583007         2.479644         2.297114
 C        -0.728359         2.151313         0.945655
 H         1.035638         0.049166         0.614799
 H        -2.561945        -0.058492        -0.498699
 H        -2.437164         0.089258         1.232114
 H        -2.709067         2.178107        -1.827838
 H        -1.546863         3.368823        -1.262605
 H        -0.615941         0.539883        -1.959988
 H         0.226518         1.958634        -1.378133
 H        -1.162027         3.342000         2.770131
 H        -1.880279         1.702468         2.915709
 H        -0.016804         2.833075         0.581406
