19
Iteration:   593
 O         0.395795        -0.262640         0.352216
 C        -0.677025         0.702905         0.218695
 C        -2.203282         0.497906         0.505504
 C        -2.053524         2.057628         0.337636
 C        -1.933704         2.364929        -1.141108
 C        -0.784624         1.275508        -1.204089
 O        -2.777140         2.860978         1.200031
 C        -1.669712         2.524294         2.142567
 C        -0.632244         2.096246         1.074310
 H         1.099310        -0.023103        -0.313414
 H        -2.950281        -0.106603        -0.051719
 H        -2.352282         0.432399         1.574860
 H        -2.874745         1.875993        -1.653936
 H        -1.769104         3.382219        -1.351225
 H        -1.073028         0.363200        -1.848641
 H         0.141037         1.849421        -1.598483
 H        -1.418679         3.555118         2.802384
 H        -1.989341         1.706798         2.843409
 H         0.162141         2.803252         0.696107
