19
Iteration:  1085
 O         0.466734        -0.165484         0.348393
 C        -0.662834         0.732849         0.205858
 C        -2.301991         0.494962         0.413329
 C        -2.171970         2.080216         0.234945
 C        -1.729052         2.525605        -1.128873
 C        -0.700774         1.316065        -1.235208
 O        -2.797850         2.824816         1.254656
 C        -1.657138         2.322742         2.269158
 C        -0.825258         1.968025         0.988187
 H         0.662680         0.017064         1.292508
 H        -2.875608        -0.067004        -0.299420
 H        -2.481342         0.061947         1.365857
 H        -2.463163         2.531228        -1.939582
 H        -1.235613         3.494508        -0.994847
 H        -0.966942         0.602311        -1.942004
 H         0.328719         1.631465        -1.530458
 H        -1.431476         3.188277         2.955453
 H        -1.937575         1.409656         2.832006
 H        -0.291097         2.941860         0.771240
