19
Iteration:  4124charge 0 multiplicity 1
 O         0.341809        -0.368760         0.231933
 C        -0.624036         0.708117         0.096492
 C        -2.097846         0.500814         0.268806
 C        -2.054720         2.123984         0.343623
 C        -1.797039         2.443987        -1.044673
 C        -0.567687         1.557717        -1.235885
 O        -2.829217         2.863886         1.266919
 C        -1.805220         2.341542         2.325294
 C        -0.797000         1.979185         1.132063
 H         0.196862        -0.821999         1.080688
 H        -2.836914         0.300168        -0.507468
 H        -2.601153         0.139880         1.196016
 H        -2.552732         2.263091        -1.734567
 H        -1.540735         3.535122        -0.991409
 H        -0.760840         0.875813        -2.083738
 H         0.418761         2.189952        -1.276608
 H        -1.643504         3.105630         3.051043
 H        -2.305623         1.376553         2.772440
 H        -0.224672         2.893044         1.010026
