19
Iteration:  3030charge 0 multiplicity 1
 O         0.367610        -0.286801         0.351430
 C        -0.745476         0.639883         0.179282
 C        -2.158914         0.403013         0.272589
 C        -2.137532         2.007013         0.294686
 C        -1.888575         2.529045        -1.144125
 C        -0.602280         1.546835        -1.171391
 O        -2.746103         2.846792         1.393371
 C        -1.674537         2.474790         2.230332
 C        -0.778427         2.032094         1.041451
 H         0.333101        -0.910686        -0.411975
 H        -2.806472        -0.112202        -0.404162
 H        -2.431114         0.095607         1.379310
 H        -2.554021         2.069437        -1.926837
 H        -1.740192         3.589421        -1.041259
 H        -0.787166         0.821235        -2.010203
 H         0.372544         1.989649        -1.206381
 H        -1.297523         3.340266         2.830704
 H        -1.875448         1.549065         2.766883
 H         0.092889         2.666016         0.815695
