19
Iteration:   864charge 0 multiplicity 1
 O         0.343684        -0.323199         0.227935
 C        -0.656199         0.712182         0.167584
 C        -2.122839         0.437156         0.437397
 C        -2.138269         2.110257         0.316004
 C        -1.869084         2.367778        -1.080164
 C        -0.583494         1.336261        -1.235369
 O        -2.851952         2.811421         1.313584
 C        -1.722523         2.540814         2.235508
 C        -0.761331         2.157129         1.011129
 H         0.637217        -0.285203         1.150249
 H        -2.727603        -0.199717        -0.175746
 H        -2.327086         0.186985         1.497940
 H        -2.711930         2.271268        -1.861560
 H        -1.416922         3.328094        -1.207232
 H        -0.660823         0.556409        -2.045820
 H         0.388084         1.841272        -1.418171
 H        -1.431506         3.507877         2.776508
 H        -1.929622         1.673988         2.855126
 H        -0.026162         3.011608         0.668605
