19
Iteration:  4729charge 0 multiplicity 1
 O         0.168588        -0.287386         0.564953
 C        -0.631770         0.762161         0.230492
 C        -2.110916         0.540827         0.157651
 C        -2.170294         2.109162         0.314869
 C        -1.797245         2.505199        -1.097227
 C        -0.493288         1.631841        -1.329582
 O        -2.777478         2.756315         1.369912
 C        -1.728381         2.205465         2.208661
 C        -0.758954         1.991152         1.019118
 H         0.065484        -0.992721        -0.080477
 H        -2.482639         0.091465        -0.745946
 H        -2.284289        -0.226741         1.065025
 H        -2.643814         2.245218        -1.862382
 H        -1.628255         3.586241        -1.025953
 H        -0.558933         0.975000        -2.242383
 H         0.372213         2.279432        -1.565227
 H        -1.351048         3.019478         3.028392
 H        -2.005492         1.362574         2.858618
 H        -0.033422         2.855202         0.714594
