19
Iteration:  1115charge 0 multiplicity 1
 O         0.401444        -0.217928         0.380328
 C        -0.618708         0.790761         0.148603
 C        -2.182674         0.469124         0.315332
 C        -2.125055         2.126433         0.273863
 C        -1.843659         2.421878        -1.168690
 C        -0.705436         1.354720        -1.283729
 O        -2.789345         2.912396         1.293184
 C        -1.746561         2.329325         2.277032
 C        -0.738587         1.937000         1.123598
 H         0.598694        -0.140365         1.328789
 H        -2.615013         0.023238        -0.604851
 H        -2.351706        -0.125461         1.230954
 H        -2.683747         2.311698        -1.914825
 H        -1.474447         3.387968        -1.364029
 H        -1.001755         0.432313        -1.927123
 H         0.183664         1.883703        -1.527318
 H        -1.308351         3.205976         2.975981
 H        -2.162461         1.590415         2.943342
 H        -0.027554         2.817841         0.982831
