19
Iteration:   776charge 0 multiplicity 1
 O         0.223601        -0.294681         0.490471
 C        -0.677296         0.734724         0.195809
 C        -2.044903         0.383673         0.358921
 C        -2.161741         2.094131         0.356539
 C        -1.930121         2.345395        -1.251205
 C        -0.614942         1.357913        -1.189797
 O        -2.809557         2.856118         1.407218
 C        -1.556891         2.493807         2.187137
 C        -0.786873         2.170776         0.899011
 H         1.039588        -0.233130        -0.042303
 H        -2.516679        -0.104470        -0.485086
 H        -2.346108         0.072737         1.354337
 H        -2.750226         1.955087        -1.958812
 H        -1.644647         3.384089        -1.434315
 H        -0.774071         0.695279        -2.113911
 H         0.378842         1.837798        -1.335918
 H        -1.320895         3.367501         2.852148
 H        -1.764383         1.646073         2.857097
 H        -0.239494         3.076528         0.416313
