19
Iteration:  1092
 O         0.454882        -0.122562         0.367440
 C        -0.735032         0.639990         0.211658
 C        -2.217106         0.442968         0.402583
 C        -2.111170         2.101013         0.235994
 C        -1.747336         2.515192        -1.060827
 C        -0.677711         1.327262        -1.296234
 O        -2.764838         2.845258         1.281214
 C        -1.715776         2.351812         2.206328
 C        -0.867910         1.997535         0.995648
 H         0.823260         0.023036         1.246085
 H        -2.796500        -0.089128        -0.392344
 H        -2.576333         0.204772         1.448029
 H        -2.541907         2.524092        -1.853112
 H        -1.354163         3.514405        -1.031257
 H        -1.174679         0.614557        -2.073077
 H         0.311332         1.646824        -1.484445
 H        -1.357943         3.037393         3.075114
 H        -2.098175         1.468903         2.697742
 H         0.012187         2.631519         0.776666
