19
Iteration:  4717charge 0 multiplicity 1
 O         0.194849        -0.378260         0.518662
 C        -0.614601         0.787564         0.112052
 C        -2.118285         0.489094         0.222943
 C        -2.112601         2.090202         0.287266
 C        -1.818726         2.525086        -1.085546
 C        -0.483848         1.656857        -1.223206
 O        -2.853767         2.779923         1.350354
 C        -1.668419         2.247232         2.232439
 C        -0.793051         2.040346         1.032123
 H         0.215542        -0.921732        -0.316550
 H        -2.641358        -0.022249        -0.591745
 H        -2.490682         0.072189         1.230770
 H        -2.510415         2.096348        -1.906325
 H        -1.688605         3.567810        -1.339705
 H        -0.647217         0.963188        -2.121213
 H         0.443563         2.175761        -1.260936
 H        -1.390239         3.114998         2.968187
 H        -2.030208         1.289026         2.623469
 H         0.014552         2.848252         1.020674
