19
Iteration:  1422
 O         0.281094        -0.314266         0.485484
 C        -0.657416         0.752814         0.123393
 C        -2.126477         0.571990         0.246543
 C        -2.098354         2.157652         0.246531
 C        -1.829378         2.490049        -1.188541
 C        -0.551735         1.375260        -1.276541
 O        -2.887312         2.622809         1.447759
 C        -1.668164         2.442630         2.231819
 C        -0.742772         2.165815         1.067025
 H        -0.112600        -1.186472         0.287303
 H        -2.627145        -0.162395        -0.423738
 H        -2.287116         0.298839         1.278548
 H        -2.663110         2.173227        -1.816779
 H        -1.736981         3.605305        -1.489180
 H        -0.886902         0.644111        -2.009192
 H         0.524672         1.688442        -1.462030
 H        -1.301842         3.443608         2.683336
 H        -1.702632         1.810033         3.051345
 H         0.003823         2.919137         0.710913
