19
Iteration:  2908charge 0 multiplicity 1
 O         0.293990        -0.357536         0.242888
 C        -0.720394         0.769679         0.278377
 C        -2.211113         0.492711         0.348722
 C        -2.187603         2.120619         0.226855
 C        -1.831222         2.422084        -1.199448
 C        -0.639352         1.483919        -1.147758
 O        -2.823576         2.774324         1.398751
 C        -1.589136         2.403254         2.182788
 C        -0.648681         2.046826         1.037605
 H         0.899431        -0.156355         0.980182
 H        -2.932904         0.205778        -0.409360
 H        -2.450685        -0.087394         1.320580
 H        -2.720727         2.016168        -1.851644
 H        -1.766618         3.493601        -1.416020
 H        -0.526631         0.705639        -1.870728
 H         0.336615         2.067182        -1.206849
 H        -1.296368         3.397438         2.695123
 H        -1.865347         1.711360         3.001098
 H         0.142614         2.749398         0.897164
