19
Iteration:   813charge 0 multiplicity 1
 O         0.403045        -0.061888         0.611970
 C        -0.702201         0.681051         0.149242
 C        -2.206014         0.576414         0.404698
 C        -2.032970         2.144850         0.254761
 C        -1.904552         2.363309        -1.214698
 C        -0.736667         1.342251        -1.388547
 O        -2.788739         2.776625         1.343297
 C        -1.656469         2.354028         2.276808
 C        -0.677705         2.023447         0.981046
 H         0.284881        -0.954638         0.182737
 H        -2.905996         0.201941        -0.344237
 H        -2.505442         0.112676         1.350312
 H        -2.755532         1.923518        -1.783781
 H        -1.730323         3.324568        -1.711213
 H        -1.063975         0.612692        -2.152094
 H         0.352979         1.706119        -1.562794
 H        -1.259947         3.225459         2.838292
 H        -1.847171         1.429234         2.802252
 H         0.027300         2.815400         0.685567
