19
Iteration:  1966
 O         0.319911        -0.237017         0.334383
 C        -0.682221         0.690783         0.197470
 C        -2.122558         0.429302         0.291919
 C        -2.139125         2.099537         0.339020
 C        -1.862851         2.362683        -1.140624
 C        -0.687167         1.342011        -1.242100
 O        -2.764968         2.932436         1.423008
 C        -1.618533         2.499387         2.214676
 C        -0.711857         2.051503         0.995334
 H         0.023144        -0.844065         1.051166
 H        -2.666505         0.037510        -0.612268
 H        -2.619752         0.105126         1.196733
 H        -2.746710         2.077622        -1.720617
 H        -1.579403         3.430442        -1.468525
 H        -0.860735         0.600720        -2.049368
 H         0.319202         1.827042        -1.395425
 H        -1.483177         3.300596         2.977068
 H        -1.944093         1.437162         2.569050
 H        -0.002359         2.852339         0.605718
