19
Iteration:  3596charge 0 multiplicity 1
 O         0.277382        -0.413723         0.320740
 C        -0.675757         0.651103         0.177713
 C        -2.158499         0.495367         0.191501
 C        -2.108611         2.187675         0.323367
 C        -1.814193         2.586334        -1.144873
 C        -0.548464         1.560580        -1.107859
 O        -2.821224         2.748660         1.367490
 C        -1.738480         2.325859         2.240253
 C        -0.786401         2.002814         1.052725
 H         1.088320         0.049782         0.609198
 H        -2.590537         0.042625        -0.759115
 H        -2.399517         0.000195         1.164180
 H        -2.684857         2.222204        -1.837545
 H        -1.604671         3.649329        -1.240562
 H        -0.675743         0.952520        -2.128344
 H         0.292815         2.211750        -1.169425
 H        -1.332179         3.159817         2.915517
 H        -2.030271         1.505383         2.943374
 H         0.016872         2.766713         0.834956
