19
Iteration:  2543charge 0 multiplicity 1
 O         0.266436        -0.262245         0.460831
 C        -0.637815         0.660048         0.097715
 C        -2.167412         0.440834         0.411800
 C        -2.048556         2.073849         0.281770
 C        -1.949032         2.378194        -1.216699
 C        -0.689037         1.505561        -1.301591
 O        -2.787319         2.776894         1.419342
 C        -1.510457         2.523222         2.259086
 C        -0.754356         2.083887         1.003984
 H         0.231055        -1.056324        -0.117556
 H        -2.843803        -0.034415        -0.364025
 H        -2.545321         0.103059         1.465439
 H        -2.782812         1.971084        -1.833957
 H        -1.883899         3.462512        -1.495658
 H        -0.653976         0.825585        -2.205471
 H         0.223658         2.085517        -1.333151
 H        -1.128299         3.481594         2.602750
 H        -1.820263         1.912124         3.186263
 H         0.040787         2.674490         0.725450
