19
Iteration:   971charge 0 multiplicity 1
 O         0.475118        -0.100719         0.455695
 C        -0.654400         0.748713         0.195277
 C        -2.178917         0.527786         0.273200
 C        -2.084826         2.206212         0.265509
 C        -1.814505         2.435430        -1.135884
 C        -0.744727         1.212698        -1.215679
 O        -2.908149         2.839651         1.329332
 C        -1.687022         2.313944         2.210374
 C        -0.703943         2.008083         1.087838
 H         0.553708        -0.677351        -0.340516
 H        -2.743426         0.040999        -0.568103
 H        -2.661730         0.166960         1.231679
 H        -2.679561         2.130832        -1.740255
 H        -1.526759         3.464345        -1.327064
 H        -1.228806         0.440825        -1.893987
 H         0.194967         1.423125        -1.676211
 H        -1.250442         3.159808         2.790679
 H        -2.028273         1.591651         2.991620
 H         0.143669         2.658818         0.949824
