19
Iteration:  1186charge 0 multiplicity 1
 O         0.371905        -0.316419         0.382741
 C        -0.618607         0.685521         0.148852
 C        -2.167094         0.457328         0.309049
 C        -2.144842         2.074309         0.402891
 C        -1.833493         2.417570        -1.146273
 C        -0.606175         1.460597        -1.262257
 O        -2.846147         2.761155         1.353787
 C        -1.673248         2.582464         2.174952
 C        -0.771760         2.077069         1.038558
 H        -0.179517        -1.060972         0.657442
 H        -2.692367         0.103042        -0.567850
 H        -2.349724        -0.078690         1.222294
 H        -2.665850         2.251714        -1.817857
 H        -1.591263         3.507019        -1.299236
 H        -0.744667         0.790037        -2.049339
 H         0.341196         2.028113        -1.300384
 H        -1.334036         3.396662         2.721887
 H        -1.981987         1.723619         2.874283
 H        -0.007292         2.810767         0.923372
