19
Iteration:  3605charge 0 multiplicity 1
 O         0.333313        -0.357665         0.351630
 C        -0.662984         0.649356         0.216709
 C        -2.192590         0.476400         0.146274
 C        -2.074248         2.194081         0.259454
 C        -1.830407         2.582361        -1.114491
 C        -0.577261         1.543779        -1.237753
 O        -2.834350         2.800094         1.390435
 C        -1.686722         2.279480         2.275594
 C        -0.850290         1.941126         1.104536
 H         1.144765         0.089919         0.661591
 H        -2.707767         0.106356        -0.702022
 H        -2.746630         0.077803         0.954219
 H        -2.786750         2.460509        -1.777785
 H        -1.583101         3.634282        -1.221963
 H        -0.469004         0.751188        -2.039547
 H         0.381369         1.962862        -1.171717
 H        -1.322731         3.208779         2.748216
 H        -1.955856         1.542850         2.994485
 H        -0.028028         2.725280         1.015339
