19
Iteration:  3265
 O         0.291779        -0.301731         0.167801
 C        -0.638038         0.746131         0.172397
 C        -2.163920         0.630377         0.382503
 C        -2.105285         2.176961         0.330632
 C        -1.704986         2.544578        -1.138341
 C        -0.545920         1.397976        -1.188267
 O        -2.824602         2.722233         1.355828
 C        -1.770858         2.253178         2.294904
 C        -0.819571         2.056994         1.040595
 H         0.530154        -0.632665         1.065270
 H        -2.756379         0.141320        -0.359134
 H        -2.669481         0.133952         1.358679
 H        -2.499889         2.360018        -1.811631
 H        -1.447145         3.585549        -1.421581
 H        -0.974167         0.723975        -1.898686
 H         0.505523         1.706647        -1.486073
 H        -1.532312         3.033293         3.008282
 H        -2.111858         1.216459         2.581160
 H        -0.114139         2.975721         0.983110
