19
Iteration:   473
 O         0.362210        -0.260437         0.203035
 C        -0.679193         0.730022         0.201661
 C        -2.047234         0.449053         0.593561
 C        -2.181282         2.028951         0.334237
 C        -1.866762         2.295124        -1.142786
 C        -0.723925         1.229668        -1.248671
 O        -2.774035         2.964747         1.323077
 C        -1.657813         2.568445         2.160649
 C        -0.776914         2.172384         0.957993
 H         0.539607        -0.681472         1.060436
 H        -2.765234        -0.031993        -0.116057
 H        -2.152670         0.195436         1.650348
 H        -2.626459         1.960153        -1.981335
 H        -1.575610         3.323779        -1.206592
 H        -1.054078         0.371260        -1.860650
 H         0.309479         1.533918        -1.606298
 H        -1.445443         3.304513         3.038584
 H        -1.911350         1.735222         2.814992
 H        -0.109558         2.991131         0.636751
