19
Iteration:   632
 O         0.315232        -0.255613         0.486309
 C        -0.571721         0.742086         0.173142
 C        -2.197354         0.421416         0.406321
 C        -2.191215         2.000888         0.240156
 C        -1.887847         2.322458        -1.249177
 C        -0.680366         1.298717        -1.275223
 O        -2.807343         2.853568         1.439947
 C        -1.559146         2.620986         2.263025
 C        -0.776537         2.176063         0.944016
 H         0.590742        -0.622815        -0.351945
 H        -2.814294        -0.262134        -0.218682
 H        -2.156154         0.104383         1.458969
 H        -2.645879         2.030238        -1.890599
 H        -1.632915         3.432036        -1.467358
 H        -0.876984         0.561708        -1.997427
 H         0.326482         1.516719        -1.495251
 H        -1.300781         3.465402         2.705521
 H        -1.653597         1.844772         3.005473
 H        -0.174951         3.021392         0.552713
