19
Iteration:   373
 O         0.404110        -0.103361         0.567776
 C        -0.656870         0.751948         0.173711
 C        -2.213848         0.662008         0.446858
 C        -2.105665         2.128096         0.303298
 C        -1.916180         2.305579        -1.184476
 C        -0.853032         1.151895        -1.332184
 O        -2.839085         2.757298         1.350167
 C        -1.431461         2.431458         2.229181
 C        -0.744647         2.071947         0.899229
 H         0.856924        -0.539185        -0.192521
 H        -2.949604         0.262176        -0.283594
 H        -2.406322         0.287358         1.448073
 H        -2.801597         2.138998        -1.832102
 H        -1.535973         3.311227        -1.519801
 H        -1.090453         0.362216        -2.017512
 H         0.096737         1.583891        -1.801598
 H        -1.135865         3.413658         2.707959
 H        -1.628184         1.603354         2.923043
 H         0.034414         2.728898         0.603922
