19
Iteration:   891charge 0 multiplicity 1
 O         0.274571        -0.373447         0.307496
 C        -0.647892         0.755069         0.252412
 C        -2.184866         0.501529         0.397724
 C        -2.150956         2.142025         0.283809
 C        -1.938048         2.321687        -1.214733
 C        -0.541559         1.560286        -1.258451
 O        -2.835355         2.668838         1.333868
 C        -1.651821         2.621353         2.218533
 C        -0.679396         1.988051         1.103857
 H         1.011875        -0.068496         0.874448
 H        -2.852072        -0.037322        -0.343462
 H        -2.444086         0.218686         1.406159
 H        -2.629724         1.738319        -1.775192
 H        -1.903428         3.405576        -1.616490
 H        -0.679155         0.730072        -1.945984
 H         0.421742         2.088946        -1.620633
 H        -1.279693         3.592887         2.384669
 H        -1.932626         2.017520         3.102746
 H         0.208971         2.545370         1.010216
