19
Iteration:  2497charge 0 multiplicity 1
 O         0.396164        -0.214897         0.306325
 C        -0.700743         0.698561         0.209622
 C        -2.150536         0.507991         0.422170
 C        -2.128021         2.145950         0.333304
 C        -1.823071         2.409109        -1.136544
 C        -0.737956         1.298558        -1.351486
 O        -2.795143         2.803751         1.362319
 C        -1.640598         2.481625         2.285930
 C        -0.728325         2.073620         1.016999
 H        -0.015894        -1.089760         0.317222
 H        -2.641893        -0.174868        -0.253376
 H        -2.403662         0.224885         1.430424
 H        -2.702373         2.310062        -1.760779
 H        -1.539283         3.459721        -1.318587
 H        -1.029371         0.575254        -2.147108
 H         0.208279         1.720293        -1.647226
 H        -1.303666         3.373319         2.859420
 H        -1.849754         1.634931         3.002443
 H        -0.002059         2.811483         0.598648
