19
Iteration:  2637
 O         0.358874        -0.224119         0.345109
 C        -0.684195         0.713951         0.185647
 C        -2.195321         0.515145         0.394418
 C        -2.142693         2.054093         0.262897
 C        -1.948335         2.414459        -1.131275
 C        -0.712337         1.344430        -1.203703
 O        -2.714327         2.789404         1.383422
 C        -1.592939         2.505042         2.226578
 C        -0.729970         2.041267         0.972280
 H         0.209514        -1.063564        -0.105887
 H        -2.801966        -0.043386        -0.350418
 H        -2.474441         0.327447         1.394440
 H        -2.674028         2.165241        -1.899989
 H        -1.623021         3.446139        -1.270742
 H        -0.850064         0.664070        -2.055690
 H         0.198317         2.005257        -1.357235
 H        -1.174330         3.442527         2.729530
 H        -1.749738         1.784237         3.015992
 H         0.119541         2.813525         0.902188
