19
Iteration:  4689
 O         0.339949        -0.273942         0.296257
 C        -0.701010         0.755228         0.200692
 C        -2.221408         0.588678         0.297435
 C        -2.102058         2.151951         0.285890
 C        -1.721345         2.448942        -1.149485
 C        -0.506923         1.494456        -1.204419
 O        -2.844293         2.719427         1.367394
 C        -1.762555         2.351280         2.301902
 C        -0.821014         1.959100         1.122019
 H         0.329401        -0.429369        -0.677818
 H        -2.810811         0.068455        -0.477490
 H        -2.795613         0.173376         1.109290
 H        -2.394993         2.170518        -1.937333
 H        -1.340962         3.463347        -1.384968
 H        -0.520416         0.792700        -2.012016
 H         0.568487         1.970387        -1.211578
 H        -1.448034         3.249012         2.767689
 H        -2.126393         1.505549         2.854815
 H         0.063029         2.557698         1.247502
