19
Iteration:  2590
 O         0.390978        -0.209994         0.449675
 C        -0.691487         0.802416         0.200497
 C        -2.183383         0.507007         0.383020
 C        -2.154548         2.143618         0.339577
 C        -1.879904         2.414416        -1.195272
 C        -0.824024         1.288487        -1.276285
 O        -2.672550         2.871529         1.386244
 C        -1.593897         2.326125         2.245703
 C        -0.777295         2.094403         0.956431
 H         0.576980        -0.587469        -0.438171
 H        -2.728855        -0.124149        -0.456437
 H        -2.201216        -0.103051         1.351424
 H        -2.756161         2.367994        -1.909113
 H        -1.267466         3.257763        -1.563293
 H        -1.123644         0.375074        -1.747306
 H         0.264728         1.496356        -1.621839
 H        -1.334020         3.077621         3.064923
 H        -1.973088         1.384659         2.723499
 H        -0.273517         3.010867         0.527441
