19
Iteration:  2090charge 0 multiplicity 1
 O         0.345058        -0.285910         0.398729
 C        -0.604651         0.754404         0.206875
 C        -2.204116         0.510840         0.345734
 C        -2.125999         2.135320         0.337666
 C        -1.922899         2.423559        -1.249751
 C        -0.663937         1.330750        -1.303706
 O        -2.766349         2.827145         1.405771
 C        -1.614315         2.377476         2.258480
 C        -0.703564         2.140449         0.963957
 H        -0.090966        -0.710165         1.156412
 H        -2.657006         0.059202        -0.511763
 H        -2.759901         0.261719         1.281707
 H        -2.682008         2.015800        -1.974213
 H        -1.627721         3.398444        -1.539415
 H        -0.907292         0.495498        -1.961360
 H         0.189842         1.895167        -1.654619
 H        -1.424283         3.129555         3.071478
 H        -1.785739         1.433187         2.828167
 H        -0.011801         2.938968         0.858541
