19
Iteration:   141charge 0 multiplicity 1
 O         0.288672        -0.224134         0.586723
 C        -0.660366         0.766791         0.216255
 C        -2.093354         0.422948         0.285228
 C        -2.194670         2.035799         0.325215
 C        -1.929539         2.378648        -1.149617
 C        -0.708042         1.371822        -1.326985
 O        -2.791938         2.782438         1.370621
 C        -1.495731         2.503123         2.195024
 C        -0.764017         2.129825         0.954305
 H         0.655832        -0.661082        -0.186950
 H        -2.418219        -0.146173        -0.537120
 H        -2.285435        -0.021037         1.254753
 H        -2.850318         2.302781        -1.737392
 H        -1.615042         3.450851        -1.256833
 H        -0.957443         0.509906        -2.022502
 H         0.071403         1.920421        -1.786624
 H        -1.213833         3.471057         2.567573
 H        -1.658521         1.722889         2.913844
 H        -0.109752         2.857566         0.632966
