19
Iteration:  1842charge 0 multiplicity 1
 O         0.232204        -0.296682         0.323577
 C        -0.621467         0.795932         0.197831
 C        -2.182031         0.479872         0.426807
 C        -2.175897         2.111295         0.325613
 C        -1.868600         2.363229        -1.139896
 C        -0.605164         1.389723        -1.246650
 O        -2.753514         2.895035         1.344699
 C        -1.634912         2.428306         2.141856
 C        -0.782049         1.976362         1.037472
 H         1.102784        -0.046797         0.725744
 H        -2.665284         0.166179        -0.478487
 H        -2.424482        -0.115213         1.366387
 H        -2.675170         1.984549        -1.826774
 H        -1.534564         3.308424        -1.421975
 H        -0.707902         0.622799        -2.045639
 H         0.326913         1.916309        -1.279792
 H        -1.234754         3.266910         2.704719
 H        -1.918736         1.622014         2.864231
 H        -0.072974         2.811767         0.918960
