19
Iteration:  2048
 O         0.311948        -0.322247         0.422034
 C        -0.680815         0.703045         0.175559
 C        -2.246299         0.443568         0.356386
 C        -2.164665         2.087179         0.274943
 C        -1.833943         2.468450        -1.201171
 C        -0.612187         1.413292        -1.324748
 O        -2.791064         2.725579         1.463625
 C        -1.533081         2.536388         2.211881
 C        -0.794963         2.133075         0.924086
 H         0.139411        -0.584314         1.328794
 H        -2.718815         0.070695        -0.598204
 H        -2.375082        -0.048603         1.378354
 H        -2.692851         2.353487        -1.904335
 H        -1.465170         3.472096        -1.052139
 H        -0.912620         0.693936        -2.073073
 H         0.424824         1.744826        -1.431587
 H        -1.195674         3.457231         2.743235
 H        -1.742182         1.820396         2.954858
 H         0.014605         2.789650         0.616665
