19
Iteration:  4878charge 0 multiplicity 1
 O         0.220581        -0.300312         0.461608
 C        -0.611275         0.747628         0.197350
 C        -2.161805         0.569608         0.179406
 C        -2.092970         2.146204         0.253282
 C        -1.708924         2.609667        -1.143987
 C        -0.531722         1.496442        -1.300462
 O        -2.872437         2.706468         1.404606
 C        -1.732873         2.145094         2.268288
 C        -0.806270         2.067110         1.106481
 H         1.121330        -0.150804         0.749113
 H        -2.569520         0.130923        -0.832425
 H        -2.727338         0.066000         1.004104
 H        -2.415341         2.468564        -2.013138
 H        -1.377150         3.686857        -1.131043
 H        -0.986415         0.758355        -2.117730
 H         0.456597         1.782325        -1.656724
 H        -1.549700         2.911659         2.982523
 H        -2.153820         1.166547         2.600402
 H        -0.203136         2.942803         0.977094
