19
Iteration:  3226
 O         0.372779        -0.167677         0.465363
 C        -0.650543         0.735589         0.114626
 C        -2.238969         0.467610         0.153908
 C        -2.108688         2.070456         0.298933
 C        -1.804497         2.582289        -1.023657
 C        -0.636432         1.454173        -1.267031
 O        -2.718178         2.806130         1.341902
 C        -1.664954         2.287915         2.298237
 C        -0.832189         1.942159         1.047226
 H        -0.154533        -0.980575         0.369255
 H        -2.699112         0.223240        -0.843594
 H        -2.666864        -0.043700         0.965208
 H        -2.573688         2.266314        -1.854487
 H        -1.571967         3.672033        -1.087405
 H        -0.951724         0.661554        -2.018496
 H         0.321464         1.831696        -1.577146
 H        -1.271296         3.069079         3.017712
 H        -2.085741         1.542293         2.953490
 H        -0.154742         2.712448         0.835969
