19
Iteration:  1410charge 0 multiplicity 1
 O         0.282701        -0.261496         0.500956
 C        -0.596372         0.755197         0.166077
 C        -2.216375         0.599737         0.276986
 C        -2.126351         2.093940         0.307414
 C        -1.757183         2.407545        -1.150565
 C        -0.596474         1.410286        -1.276825
 O        -2.852124         2.653204         1.439043
 C        -1.614344         2.419868         2.263007
 C        -0.787901         2.150831         0.899257
 H        -0.127061        -1.137695         0.301994
 H        -2.692040         0.252825        -0.684843
 H        -2.658393         0.117805         1.145696
 H        -2.527799         1.968939        -1.820498
 H        -1.392437         3.436807        -1.439178
 H        -0.691515         0.731952        -2.172939
 H         0.373454         1.936210        -1.464040
 H        -1.507923         3.422342         2.860863
 H        -1.722535         1.551982         2.838774
 H        -0.180945         3.048244         0.718935
