19
Iteration:  4378
 O         0.254131        -0.354907         0.304621
 C        -0.586070         0.729615         0.144888
 C        -2.127742         0.451483         0.239607
 C        -2.105285         2.099510         0.309711
 C        -1.839146         2.546563        -1.115030
 C        -0.576703         1.503992        -1.199449
 O        -2.729572         2.922672         1.338306
 C        -1.804957         2.264711         2.305313
 C        -0.817912         1.965259         1.041781
 H         0.518524        -0.170791         1.211706
 H        -2.502767        -0.096460        -0.665468
 H        -2.480054        -0.049588         1.116509
 H        -2.559238         2.189479        -1.896893
 H        -1.634282         3.589273        -1.039328
 H        -0.738486         0.875669        -2.196521
 H         0.245647         2.229878        -1.391018
 H        -1.264351         2.970874         3.045365
 H        -2.236320         1.488936         2.913008
 H        -0.027544         2.799625         1.025553
