19
Iteration:  3876charge 0 multiplicity 1
 O         0.254459        -0.268679         0.372727
 C        -0.638969         0.735615         0.104848
 C        -2.179126         0.477419         0.365730
 C        -2.188896         2.106602         0.261709
 C        -1.690847         2.566603        -1.179854
 C        -0.539774         1.515323        -1.276346
 O        -2.794628         2.861724         1.356902
 C        -1.735176         2.205075         2.298140
 C        -0.845822         1.912551         1.117088
 H         1.035444         0.035175        -0.127342
 H        -2.634756        -0.160975        -0.387886
 H        -2.392741         0.238346         1.419062
 H        -2.522838         2.381342        -1.869982
 H        -1.428551         3.594683        -1.162426
 H        -0.848962         0.774093        -2.014772
 H         0.433663         1.866360        -1.618103
 H        -1.437363         3.037439         3.059413
 H        -2.203645         1.460362         2.952975
 H        -0.118871         2.698591         0.918807
