19
Iteration:  3657charge 0 multiplicity 1
 O         0.243280        -0.369005         0.349888
 C        -0.599892         0.768191         0.268314
 C        -2.145991         0.599866         0.319046
 C        -2.180237         2.180734         0.208082
 C        -1.734746         2.593133        -1.200042
 C        -0.662993         1.503798        -1.278334
 O        -2.859771         2.729240         1.401603
 C        -1.707915         2.158346         2.248644
 C        -0.706495         2.029871         1.064853
 H         1.056892        -0.160983         0.845247
 H        -2.424149        -0.092904        -0.470212
 H        -2.593253         0.107596         1.155926
 H        -2.440219         2.634373        -2.040968
 H        -1.306614         3.577586        -0.957616
 H        -0.858012         0.771420        -1.996599
 H         0.322871         2.028426        -1.580064
 H        -1.511923         2.925318         2.978517
 H        -2.107780         1.224227         2.580474
 H        -0.002280         2.855255         1.031954
