19
Iteration:  4917
 O         0.328389        -0.327379         0.434921
 C        -0.664333         0.798243         0.156828
 C        -2.207997         0.531270         0.238388
 C        -2.116841         2.120467         0.302131
 C        -1.662138         2.621628        -1.081212
 C        -0.534231         1.500583        -1.319549
 O        -2.856103         2.758273         1.326209
 C        -1.844493         2.202944         2.235544
 C        -0.830950         1.953288         1.125201
 H         1.156419        -0.103317        -0.046719
 H        -2.708907        -0.002634        -0.569151
 H        -2.474735         0.097316         1.157049
 H        -2.508398         2.417541        -1.724259
 H        -1.263235         3.645702        -1.073094
 H        -0.840209         0.954196        -2.191612
 H         0.501823         1.898748        -1.591431
 H        -1.488137         2.921883         2.998996
 H        -2.124963         1.382211         2.924953
 H        -0.061033         2.794381         1.189950
