19
Iteration:  2462
 O         0.368164        -0.195692         0.371361
 C        -0.628204         0.786144         0.211770
 C        -2.193937         0.610396         0.363417
 C        -2.134881         2.187410         0.318372
 C        -1.877272         2.379445        -1.138854
 C        -0.759878         1.262828        -1.317695
 O        -2.791411         2.837292         1.358212
 C        -1.529254         2.256405         2.269789
 C        -0.727978         2.109651         0.989712
 H         0.049476        -1.023310         0.757988
 H        -2.521113         0.076592        -0.482995
 H        -2.517493         0.236840         1.281013
 H        -2.712126         1.972851        -1.675635
 H        -1.613411         3.418052        -1.373617
 H        -1.140980         0.469751        -1.944280
 H         0.208485         1.664808        -1.743878
 H        -1.335838         3.124106         2.949972
 H        -2.010769         1.437908         2.784603
 H         0.010027         2.906122         0.555556
