19
Iteration:  3976charge 0 multiplicity 1
 O         0.234963        -0.286645         0.230431
 C        -0.630498         0.748063         0.238066
 C        -2.097906         0.541116         0.171356
 C        -2.164864         2.065644         0.323678
 C        -1.766706         2.551143        -1.074100
 C        -0.575888         1.486194        -1.173781
 O        -2.805851         2.699938         1.347253
 C        -1.766226         2.393778         2.263321
 C        -0.763138         1.983709         1.062755
 H         0.289083        -0.621152         1.144449
 H        -2.478374        -0.035637        -0.666192
 H        -2.434608        -0.026278         1.093565
 H        -2.550147         2.591625        -1.920751
 H        -1.388556         3.522157        -0.992840
 H        -0.579060         0.698730        -1.970961
 H         0.387912         1.985009        -1.261760
 H        -1.335894         3.234533         2.971046
 H        -2.052172         1.561674         2.955371
 H        -0.125304         2.883529         0.800029
