19
Iteration:  4565
 O         0.292223        -0.292710         0.321866
 C        -0.644508         0.774329         0.136381
 C        -2.164542         0.482540         0.326701
 C        -2.118981         2.043014         0.344171
 C        -1.689262         2.564585        -1.073981
 C        -0.551788         1.553208        -1.278628
 O        -2.898603         2.734763         1.326413
 C        -1.711408         2.357029         2.215085
 C        -0.775849         2.001131         1.068858
 H        -0.229396        -1.101675         0.505378
 H        -2.663751         0.034774        -0.503924
 H        -2.440392         0.106537         1.329458
 H        -2.595507         2.336935        -1.623670
 H        -1.393879         3.560263        -0.992649
 H        -0.698409         0.907743        -2.177292
 H         0.424417         2.030963        -1.280248
 H        -1.397954         3.090922         3.021521
 H        -2.060411         1.554202         2.787763
 H         0.054039         2.743254         0.831399
