19
Iteration:  2693
 O         0.315584        -0.269717         0.432027
 C        -0.649583         0.774799         0.187330
 C        -2.150088         0.537046         0.452889
 C        -2.089128         2.111831         0.291773
 C        -1.963841         2.458857        -1.199130
 C        -0.711513         1.433044        -1.343945
 O        -2.768830         2.761640         1.371613
 C        -1.582737         2.399346         2.241358
 C        -0.686065         2.024753         0.953674
 H        -0.221192        -1.068420         0.606520
 H        -2.771080         0.049167        -0.279567
 H        -2.408572         0.158519         1.487957
 H        -2.747353         1.955682        -1.755810
 H        -1.812611         3.437424        -1.637961
 H        -0.749125         0.638756        -2.167119
 H         0.155872         2.050639        -1.553603
 H        -1.223616         3.293043         2.750688
 H        -1.713677         1.588082         2.958983
 H         0.163927         2.800306         0.864228
