19
Iteration:  3998
 O         0.379010        -0.276014         0.224408
 C        -0.679529         0.678259         0.154267
 C        -2.291947         0.520186         0.232388
 C        -2.074848         2.175839         0.330639
 C        -1.731448         2.507453        -1.127261
 C        -0.568013         1.533394        -1.226633
 O        -2.834097         2.766628         1.336957
 C        -1.796494         2.296196         2.305689
 C        -0.781936         1.937513         1.161865
 H         0.764894        -0.041446         1.089712
 H        -2.805018         0.093045        -0.641861
 H        -2.777923         0.166637         1.185578
 H        -2.568398         2.157610        -1.858453
 H        -1.446106         3.442732        -1.464822
 H        -0.665202         0.756016        -2.027898
 H         0.386666         1.996282        -1.426142
 H        -1.232239         3.186412         2.831851
 H        -1.913159         1.578547         3.114331
 H         0.045757         2.670558         1.374416
