19
Iteration:   305
 O         0.324892        -0.266637         0.360247
 C        -0.632596         0.696125         0.168287
 C        -2.125345         0.501378         0.566619
 C        -2.136675         2.036200         0.338765
 C        -1.962136         2.255361        -1.182855
 C        -0.685884         1.501279        -1.266187
 O        -2.786624         2.766815         1.312940
 C        -1.551950         2.640921         2.135675
 C        -0.736524         2.044836         0.999476
 H        -0.155499        -1.112954         0.259396
 H        -2.795867        -0.065104        -0.014443
 H        -2.217414         0.213701         1.652712
 H        -2.803606         1.869883        -1.693858
 H        -1.944376         3.369750        -1.509429
 H        -0.561494         0.783834        -2.107861
 H         0.183354         2.170533        -1.435487
 H        -1.077508         3.571388         2.457848
 H        -1.772369         1.948029         3.028681
 H        -0.069914         2.780679         0.612281
