19
Iteration:  1339
 O         0.350344        -0.221528         0.350872
 C        -0.620070         0.797212         0.237245
 C        -2.131583         0.539711         0.316928
 C        -2.154544         2.156786         0.271667
 C        -1.784833         2.402804        -1.144570
 C        -0.656175         1.328771        -1.185249
 O        -2.809765         2.822796         1.325901
 C        -1.764032         2.385307         2.257922
 C        -0.749478         2.001676         1.096695
 H         0.662711        -0.558125        -0.513102
 H        -2.608893         0.079795        -0.537990
 H        -2.623004         0.204456         1.235605
 H        -2.535797         1.997789        -1.845780
 H        -1.469457         3.411616        -1.337555
 H        -0.993603         0.530332        -1.832800
 H         0.340360         1.578437        -1.614386
 H        -1.393195         3.143092         2.868666
 H        -2.214963         1.457953         2.797998
 H        -0.062763         2.840410         0.889594
