19
Iteration:  2655charge 0 multiplicity 1
 O         0.249345        -0.338617         0.343873
 C        -0.620507         0.828808         0.245987
 C        -2.100518         0.506297         0.417294
 C        -2.166056         2.124106         0.357882
 C        -1.872157         2.351428        -1.244858
 C        -0.633295         1.421731        -1.253699
 O        -2.836086         2.786975         1.453228
 C        -1.491209         2.452869         2.212685
 C        -0.753312         2.133850         0.942204
 H        -0.305479        -1.011134        -0.067438
 H        -2.633378        -0.068447        -0.464026
 H        -2.454648        -0.127006         1.263319
 H        -2.848560         2.012992        -1.697315
 H        -1.831049         3.435326        -1.501970
 H        -0.731803         0.565618        -1.891689
 H         0.353406         1.896416        -1.532570
 H        -1.336899         3.428235         2.719654
 H        -1.583264         1.590578         2.924272
 H        -0.171112         2.925846         0.511199
