19
Iteration:   307charge 0 multiplicity 1
 O         0.336847        -0.266403         0.353497
 C        -0.644151         0.696338         0.164716
 C        -2.136447         0.505158         0.590797
 C        -2.149738         2.023062         0.339090
 C        -1.960653         2.260324        -1.153218
 C        -0.670561         1.491007        -1.271980
 O        -2.782528         2.790240         1.302825
 C        -1.572451         2.622976         2.096536
 C        -0.713970         2.048524         0.994021
 H        -0.161819        -1.081189         0.234125
 H        -2.887899        -0.088461         0.068653
 H        -2.185272         0.132310         1.645554
 H        -2.818233         1.840131        -1.671251
 H        -1.972906         3.387021        -1.432642
 H        -0.537881         0.827713        -2.100505
 H         0.187213         2.228844        -1.405109
 H        -1.131183         3.551241         2.520422
 H        -1.740896         1.930681         2.967199
 H        -0.019712         2.768061         0.688926
