19
Iteration:  1941
 O         0.259124        -0.289493         0.481944
 C        -0.677297         0.748982         0.201260
 C        -2.159415         0.561322         0.325445
 C        -2.209212         2.061129         0.291020
 C        -1.869778         2.497382        -1.167710
 C        -0.648508         1.424358        -1.336875
 O        -2.765788         2.677384         1.368129
 C        -1.485867         2.448485         2.204385
 C        -0.730061         1.998019         0.977596
 H         0.174081        -0.464920         1.434105
 H        -2.943964         0.165316        -0.397177
 H        -2.406054         0.275936         1.386150
 H        -2.668477         2.284958        -1.922751
 H        -1.549276         3.554521        -1.331962
 H        -0.885120         0.600816        -2.035029
 H         0.304693         1.933494        -1.635273
 H        -1.371924         3.527306         2.332214
 H        -1.676780         1.821371         3.122101
 H        -0.086067         2.855761         0.643382
