19
Iteration:  1448charge 0 multiplicity 1
 O         0.332411        -0.283999         0.394480
 C        -0.626252         0.764298         0.210540
 C        -2.160457         0.532836         0.383929
 C        -2.129155         2.016807         0.268457
 C        -1.768593         2.427578        -1.100152
 C        -0.690224         1.469981        -1.286121
 O        -2.816801         2.763580         1.283296
 C        -1.725919         2.440105         2.211195
 C        -0.707047         2.070917         1.080521
 H        -0.119955        -1.112511         0.141982
 H        -2.554399        -0.117647        -0.387606
 H        -2.471320         0.080043         1.355271
 H        -2.633889         2.319542        -1.790596
 H        -1.540450         3.459676        -1.254519
 H        -0.804362         0.795395        -2.122491
 H         0.298472         1.938844        -1.304683
 H        -1.401817         3.325554         2.599447
 H        -1.884255         1.730767         3.086812
 H        -0.022658         2.883874         0.751020
