19
Iteration:  2999charge 0 multiplicity 1
 O         0.366131        -0.211935         0.340269
 C        -0.708476         0.717484         0.190958
 C        -2.166695         0.615474         0.303086
 C        -2.101939         2.099455         0.340162
 C        -1.786305         2.383472        -1.141636
 C        -0.658207         1.313053        -1.340494
 O        -2.838930         2.831784         1.435566
 C        -1.724281         2.370948         2.233848
 C        -0.762566         2.011173         1.115512
 H         0.843389        -0.157309        -0.498438
 H        -2.860091         0.321208        -0.529862
 H        -2.533447         0.179303         1.281144
 H        -2.652713         2.328596        -1.818822
 H        -1.492686         3.453800        -1.136688
 H        -0.785530         0.472079        -2.081723
 H         0.275564         1.798930        -1.583575
 H        -1.172512         3.163595         2.807787
 H        -1.945394         1.507624         2.978643
 H         0.206190         2.529002         0.897236
