19
Iteration:  1688charge 0 multiplicity 1
 O         0.272851        -0.275867         0.515023
 C        -0.651330         0.674954         0.172230
 C        -2.173863         0.457965         0.328266
 C        -2.147850         2.086098         0.289461
 C        -1.755264         2.491114        -1.118583
 C        -0.625210         1.398115        -1.294703
 O        -2.827406         2.742946         1.421503
 C        -1.626270         2.486087         2.232569
 C        -0.792716         2.139518         0.883485
 H         0.378661        -0.909153        -0.194836
 H        -2.496069        -0.153933        -0.518673
 H        -2.614020         0.081275         1.208340
 H        -2.588588         2.255432        -1.784025
 H        -1.518124         3.479735        -1.158961
 H        -0.826980         0.674230        -2.084341
 H         0.325669         1.864352        -1.435822
 H        -1.324058         3.434851         2.581305
 H        -1.604314         1.653139         2.908836
 H        -0.171840         2.987069         0.730190
