19
Iteration:  2593charge 0 multiplicity 1
 O         0.400685        -0.197681         0.455161
 C        -0.662745         0.783376         0.174708
 C        -2.186713         0.497656         0.385407
 C        -2.182689         2.123672         0.320875
 C        -1.877785         2.426454        -1.186076
 C        -0.837091         1.281171        -1.287668
 O        -2.652654         2.892143         1.391362
 C        -1.614306         2.321575         2.245399
 C        -0.792147         2.073712         0.976871
 H         0.571768        -0.546972        -0.428880
 H        -2.679561        -0.069317        -0.396457
 H        -2.206999         0.031018         1.312233
 H        -2.735175         2.366047        -1.834930
 H        -1.297065         3.313316        -1.436721
 H        -1.120240         0.362038        -1.782995
 H         0.239995         1.483525        -1.610049
 H        -1.389945         3.141446         2.978482
 H        -1.952621         1.451004         2.738957
 H        -0.133174         2.921384         0.511041
