19
Iteration:  3281
 O         0.166486        -0.342054         0.149908
 C        -0.611220         0.824547         0.239035
 C        -2.178790         0.530805         0.255152
 C        -2.089664         2.102147         0.291399
 C        -1.738746         2.463037        -1.109682
 C        -0.581645         1.484382        -1.183478
 O        -2.857077         2.734906         1.375259
 C        -1.741669         2.320458         2.254841
 C        -0.705503         2.080300         1.139728
 H         0.736896        -0.321825         0.931855
 H        -2.602468        -0.028271        -0.636438
 H        -2.507690         0.202718         1.159335
 H        -2.466258         2.228164        -1.948036
 H        -1.404882         3.499429        -1.002290
 H        -0.523650         0.634433        -1.930401
 H         0.365794         1.997661        -1.274210
 H        -1.452331         3.190491         2.907608
 H        -1.971222         1.502509         2.941846
 H         0.052829         2.784018         0.934243
