19
Iteration:  2596charge 0 multiplicity 1
 O         0.402705        -0.179325         0.457241
 C        -0.636668         0.759235         0.154107
 C        -2.182938         0.495198         0.384300
 C        -2.199803         2.099675         0.297935
 C        -1.873806         2.433947        -1.171908
 C        -0.830865         1.267970        -1.297731
 O        -2.646930         2.915240         1.399081
 C        -1.631784         2.332776         2.243634
 C        -0.792440         2.057348         0.983259
 H         0.597514        -0.547378        -0.430566
 H        -2.662667        -0.036156        -0.359125
 H        -2.299061         0.126558         1.407667
 H        -2.743346         2.342090        -1.802867
 H        -1.362015         3.421881        -1.270333
 H        -1.151098         0.342821        -1.885981
 H         0.130283         1.528340        -1.632841
 H        -1.396824         3.150753         2.869109
 H        -1.955976         1.439464         2.805730
 H        -0.044377         2.759556         0.622359
