19
Iteration:  4026charge 0 multiplicity 1
 O         0.306339        -0.248328         0.283103
 C        -0.662458         0.715869         0.142505
 C        -2.194915         0.478362         0.275048
 C        -2.130039         2.111502         0.274571
 C        -1.820787         2.554941        -1.159367
 C        -0.522818         1.427506        -1.216430
 O        -2.773457         2.871877         1.418864
 C        -1.809226         2.200959         2.273259
 C        -0.763823         2.052931         1.058366
 H         0.749341        -0.008102         1.114079
 H        -2.766257        -0.029147        -0.546758
 H        -2.650205        -0.031437         1.138120
 H        -2.512109         2.371966        -1.943400
 H        -1.490755         3.663889        -1.232974
 H        -0.615222         0.697559        -2.012423
 H         0.513978         1.876044        -1.274769
 H        -1.515164         2.709198         3.137055
 H        -2.017063         1.159923         2.583683
 H         0.043595         2.758679         1.162952
