19
Iteration:   948
 O         0.352503        -0.143986         0.559532
 C        -0.632490         0.775522         0.221096
 C        -2.149830         0.551022         0.426541
 C        -2.105435         2.074074         0.200036
 C        -1.832732         2.467793        -1.229889
 C        -0.753607         1.307256        -1.400634
 O        -2.758884         2.760762         1.368729
 C        -1.725570         2.305890         2.243081
 C        -0.720355         2.053125         1.024017
 H         0.936729        -0.275643        -0.209140
 H        -2.854165         0.028700        -0.282849
 H        -2.562546         0.335939         1.445531
 H        -2.634887         2.411597        -1.931605
 H        -1.385752         3.498806        -1.263612
 H        -1.039959         0.485303        -2.118535
 H         0.241816         1.669833        -1.679048
 H        -1.425834         2.939711         3.049806
 H        -2.150262         1.424292         2.805710
 H        -0.159002         2.845561         0.667963
