19
Iteration:    83
 O         0.409735        -0.167932         0.319811
 C        -0.652676         0.772701         0.225623
 C        -2.110534         0.489703         0.504817
 C        -2.167179         2.090464         0.314969
 C        -1.894571         2.371725        -1.193616
 C        -0.702191         1.333755        -1.236415
 O        -2.760925         2.862004         1.260894
 C        -1.670449         2.342872         2.235326
 C        -0.764539         2.099862         0.958466
 H         0.120851        -0.932182         0.868185
 H        -2.618459        -0.155960        -0.265302
 H        -2.391648         0.077699         1.477868
 H        -2.776805         2.087148        -1.851619
 H        -1.643233         3.417647        -1.333754
 H        -0.950335         0.500068        -2.007905
 H         0.258838         1.812409        -1.539006
 H        -1.327854         3.186480         2.923011
 H        -2.092318         1.599975         2.974965
 H         0.012935         2.944232         0.882866
