19
Iteration:  1802charge 0 multiplicity 1
 O         0.164416        -0.342506         0.558629
 C        -0.624274         0.762058         0.193379
 C        -2.142082         0.617440         0.377231
 C        -2.102721         2.107697         0.280176
 C        -1.805678         2.515752        -1.240948
 C        -0.666298         1.378533        -1.324265
 O        -2.843116         2.582199         1.434371
 C        -1.582493         2.492151         2.163634
 C        -0.744052         2.085694         0.972517
 H         1.018449        -0.406050         0.132598
 H        -2.544560         0.113705        -0.542034
 H        -2.440039         0.117087         1.324834
 H        -2.706859         2.284710        -1.810018
 H        -1.553036         3.654986        -1.245475
 H        -0.895448         0.517928        -1.989959
 H         0.195488         2.026616        -1.680269
 H        -1.044158         3.449351         2.372111
 H        -1.872615         1.766523         2.987895
 H         0.123636         2.764734         0.651969
