19
Iteration:  3172charge 0 multiplicity 1
 O         0.151373        -0.356377         0.313159
 C        -0.635118         0.747849         0.089101
 C        -2.117681         0.614353         0.315263
 C        -2.091855         2.205225         0.361061
 C        -1.772772         2.410594        -1.163690
 C        -0.546411         1.465272        -1.257696
 O        -2.889737         2.688924         1.369434
 C        -1.640162         2.342874         2.363637
 C        -0.767761         2.116876         1.119069
 H         0.883534        -0.277803        -0.327054
 H        -2.639859         0.026168        -0.509642
 H        -2.414838         0.100364         1.179064
 H        -2.585243         2.167148        -1.926908
 H        -1.379109         3.372463        -1.545112
 H        -0.510754         0.612219        -1.985549
 H         0.370181         2.021321        -1.347542
 H        -1.641608         3.146749         3.085748
 H        -1.887876         1.408658         2.774725
 H        -0.108488         2.909063         0.904845
