19
Iteration:  1088
 O         0.465731        -0.149007         0.353592
 C        -0.692970         0.697241         0.213437
 C        -2.271322         0.475250         0.413484
 C        -2.143741         2.094732         0.219097
 C        -1.742117         2.517496        -1.094714
 C        -0.693092         1.319394        -1.258735
 O        -2.784550         2.831036         1.259197
 C        -1.670815         2.345231         2.254870
 C        -0.849129         1.971354         0.988136
 H         0.713398         0.043163         1.284583
 H        -2.863677        -0.074409        -0.338207
 H        -2.517830         0.085670         1.431080
 H        -2.470969         2.525842        -1.883997
 H        -1.252861         3.575210        -0.987268
 H        -1.077200         0.588907        -2.020368
 H         0.374880         1.650708        -1.515076
 H        -1.443018         3.048444         2.968348
 H        -1.984809         1.404685         2.779158
 H        -0.195686         2.838340         0.778730
