19
Iteration:  1373charge 0 multiplicity 1
 O         0.387895        -0.160771         0.546415
 C        -0.665437         0.674323         0.141282
 C        -2.144186         0.453746         0.354065
 C        -2.106011         2.158241         0.298792
 C        -1.820814         2.475091        -1.161789
 C        -0.679371         1.459993        -1.274950
 O        -2.699522         2.865487         1.301539
 C        -1.748835         2.290473         2.240776
 C        -0.832194         1.968814         0.986134
 H         0.340738        -0.940834        -0.027455
 H        -2.731426        -0.061086        -0.418124
 H        -2.568565         0.223358         1.356060
 H        -2.657192         2.082146        -1.832387
 H        -1.699186         3.478664        -1.503504
 H        -0.948409         0.806459        -2.136670
 H         0.246286         1.990480        -1.434729
 H        -1.321707         2.956929         2.987617
 H        -2.226628         1.428575         2.872738
 H        -0.056347         2.646978         0.703083
