19
Iteration:  2225
 O         0.379534        -0.193894         0.405046
 C        -0.688897         0.728551         0.185216
 C        -2.237288         0.526123         0.413950
 C        -2.120057         2.129716         0.288891
 C        -1.886684         2.393935        -1.249516
 C        -0.676909         1.347502        -1.284949
 O        -2.741913         2.834875         1.379903
 C        -1.626118         2.335311         2.348037
 C        -0.727512         2.080821         0.933784
 H        -0.088163        -1.008473         0.640063
 H        -2.636516         0.000330        -0.554997
 H        -2.539844         0.215769         1.431238
 H        -2.720131         2.133124        -1.915748
 H        -1.523649         3.448754        -1.519451
 H        -0.829309         0.591607        -2.082183
 H         0.231835         1.958890        -1.489549
 H        -1.255917         3.289881         2.786404
 H        -1.957716         1.446209         2.955649
 H         0.104791         2.817084         0.706334
