19
Iteration:  2056
 O         0.278885        -0.259607         0.452089
 C        -0.708053         0.736988         0.081998
 C        -2.226689         0.413467         0.406643
 C        -2.143127         2.140940         0.292724
 C        -1.813077         2.487780        -1.164493
 C        -0.611265         1.389153        -1.304778
 O        -2.849869         2.686480         1.443889
 C        -1.487662         2.486922         2.215089
 C        -0.739528         2.103584         0.912553
 H        -0.057008        -0.528586         1.309244
 H        -2.763317         0.026888        -0.389826
 H        -2.748911         0.173323         1.304793
 H        -2.538610         2.217569        -1.950513
 H        -1.484139         3.481052        -1.346933
 H        -0.759196         0.618985        -2.082804
 H         0.344611         1.835294        -1.476236
 H        -1.109440         3.445828         2.566596
 H        -1.610386         1.691949         2.973412
 H         0.033924         2.745190         0.619329
