19
Iteration:  4667charge 0 multiplicity 1
 O         0.389791        -0.210930         0.312000
 C        -0.673010         0.694369         0.192130
 C        -2.196953         0.566161         0.200751
 C        -2.093346         2.082943         0.356250
 C        -1.730345         2.562614        -1.073805
 C        -0.621298         1.347973        -1.178710
 O        -2.849258         2.832641         1.320160
 C        -1.806475         2.324645         2.293746
 C        -0.750572         1.927838         1.134013
 H         0.599871        -0.498500        -0.587880
 H        -2.745522         0.056871        -0.590431
 H        -2.502047        -0.070989         1.029722
 H        -2.368445         2.538204        -1.913974
 H        -1.245016         3.577888        -1.097834
 H        -0.833931         0.582411        -1.894668
 H         0.386980         1.830819        -1.495895
 H        -1.562009         3.230450         2.726647
 H        -2.280753         1.559670         2.868027
 H        -0.212547         2.814261         0.896044
