19
Iteration:   736charge 0 multiplicity 1
 O         0.363803        -0.298819         0.243441
 C        -0.657367         0.623733         0.207075
 C        -2.113393         0.491017         0.533473
 C        -2.017816         2.152988         0.272821
 C        -1.878184         2.404146        -1.142922
 C        -0.771323         1.353637        -1.240249
 O        -2.877729         2.785380         1.287968
 C        -1.730238         2.566996         2.147179
 C        -0.648515         2.038657         1.061422
 H         0.827192        -0.027567         1.064773
 H        -2.694927        -0.139054        -0.141072
 H        -2.488344         0.330192         1.558681
 H        -2.786260         1.981305        -1.708899
 H        -1.664658         3.394850        -1.498853
 H        -0.918871         0.456418        -1.864267
 H         0.256570         1.840616        -1.332746
 H        -1.188630         3.529388         2.498932
 H        -1.989288         2.084035         3.085261
 H         0.090912         2.831051         0.896948
