19
Iteration:   170charge 0 multiplicity 1
 O         0.227266        -0.385432         0.383416
 C        -0.634941         0.696163         0.160687
 C        -2.075925         0.554190         0.556864
 C        -2.125342         2.054678         0.283856
 C        -1.938624         2.410894        -1.182467
 C        -0.621641         1.425584        -1.242524
 O        -2.848043         2.664956         1.340956
 C        -1.605681         2.576339         2.157297
 C        -0.749445         2.130041         0.950540
 H         1.136524        -0.114852         0.119891
 H        -2.829095        -0.263761         0.223581
 H        -2.087731         0.420228         1.641727
 H        -2.838789         2.242685        -1.869325
 H        -1.642284         3.442259        -1.266661
 H        -0.554726         0.632713        -2.090956
 H         0.263542         2.083403        -1.418192
 H        -1.323425         3.645811         2.439295
 H        -1.706626         1.919310         3.095483
 H        -0.054963         2.977436         0.462499
