19
Iteration:  1759
 O         0.351311        -0.300175         0.409855
 C        -0.629171         0.736135         0.275018
 C        -2.135037         0.528534         0.368410
 C        -2.157871         2.099202         0.276170
 C        -1.902807         2.348155        -1.200732
 C        -0.631008         1.374871        -1.267601
 O        -2.737318         2.974842         1.401373
 C        -1.734647         2.351754         2.240125
 C        -0.808937         1.992155         1.005198
 H         0.801423        -0.243877        -0.426856
 H        -2.693259         0.021672        -0.459331
 H        -2.623567         0.201709         1.316357
 H        -2.660961         2.199356        -1.976154
 H        -1.306247         3.361008        -1.352440
 H        -0.806801         0.615729        -2.064644
 H         0.384429         1.896038        -1.388063
 H        -1.284441         3.295042         2.676168
 H        -2.131479         1.533044         2.842095
 H        -0.089522         2.803253         0.644544
