19
Iteration:  1005charge 0 multiplicity 1
 O         0.348230        -0.262707         0.392415
 C        -0.650620         0.742331         0.115563
 C        -2.135004         0.361662         0.401983
 C        -2.145955         2.096143         0.264442
 C        -1.871101         2.385606        -1.126516
 C        -0.555940         1.498252        -1.190747
 O        -2.829894         2.827753         1.294057
 C        -1.655047         2.417992         2.266521
 C        -0.797543         2.100701         0.984334
 H        -0.047647        -1.142987         0.300638
 H        -2.848711        -0.199257        -0.241186
 H        -2.149818         0.213830         1.502739
 H        -2.590127         2.057556        -1.945121
 H        -1.689747         3.413102        -1.333104
 H        -0.606344         0.863367        -2.122238
 H         0.273956         2.110177        -1.072250
 H        -1.275553         3.417348         2.716331
 H        -2.095746         1.678021         2.958235
 H        -0.105721         2.963721         0.801604
