19
Iteration:  4469
 O         0.214313        -0.317412         0.508497
 C        -0.605500         0.764438         0.061963
 C        -2.127603         0.496540         0.202734
 C        -2.134915         2.065900         0.240228
 C        -1.825162         2.620756        -1.065641
 C        -0.592510         1.538315        -1.275874
 O        -2.802125         2.755157         1.411929
 C        -1.649228         2.279617         2.227776
 C        -0.766579         2.009652         0.976234
 H        -0.248613        -0.716567         1.281033
 H        -2.512057        -0.062397        -0.636545
 H        -2.390040        -0.012625         1.190953
 H        -2.518689         2.347629        -1.869428
 H        -1.448515         3.626068        -1.111453
 H        -0.543393         0.751937        -2.039683
 H         0.314857         2.228267        -1.382849
 H        -1.285354         2.926883         3.075028
 H        -2.005287         1.389684         2.766395
 H        -0.120793         2.860802         0.727275
