19
Iteration:   356charge 0 multiplicity 1
 O         0.432899        -0.135811         0.431797
 C        -0.645752         0.744288         0.185769
 C        -2.161728         0.480831         0.390889
 C        -2.115289         2.158614         0.319479
 C        -1.981713         2.255823        -1.243725
 C        -0.792018         1.175488        -1.326748
 O        -2.743246         2.910377         1.421557
 C        -1.655929         2.514579         2.280661
 C        -0.660528         2.089639         0.999002
 H         0.568008        -0.671866        -0.387084
 H        -2.689062        -0.191758        -0.356817
 H        -2.633324         0.156297         1.327355
 H        -2.932261         1.989575        -1.785420
 H        -1.650908         3.202021        -1.607694
 H        -1.206033         0.255245        -1.834373
 H         0.136501         1.410875        -1.815378
 H        -1.228540         3.359681         2.814659
 H        -1.965177         1.846765         3.086747
 H         0.150006         2.877963         0.788448
