19
Iteration:  3334charge 0 multiplicity 1
 O         0.174788        -0.308967         0.420253
 C        -0.682406         0.731266         0.187850
 C        -2.189874         0.517341         0.229054
 C        -2.128969         2.140159         0.301483
 C        -1.799131         2.579584        -1.107194
 C        -0.549958         1.530467        -1.219642
 O        -2.812631         2.740322         1.357876
 C        -1.641983         2.229977         2.261815
 C        -0.755252         1.986796         1.025426
 H         1.018154         0.141145         0.211666
 H        -2.670181         0.060488        -0.672579
 H        -2.427593        -0.177401         0.979827
 H        -2.506636         2.534741        -1.944094
 H        -1.435423         3.544041        -1.122069
 H        -0.492210         0.840388        -2.124194
 H         0.397213         2.039519        -1.153206
 H        -1.348099         3.142777         2.838240
 H        -1.956755         1.331247         2.826954
 H         0.006870         2.694685         0.708567
