19
Iteration:  4358charge 0 multiplicity 1
 O         0.297802        -0.364886         0.401195
 C        -0.750671         0.760156         0.201619
 C        -2.206466         0.614835         0.200921
 C        -2.076814         2.126862         0.296186
 C        -1.796258         2.550649        -1.204695
 C        -0.589011         1.526466        -1.272997
 O        -2.800720         2.738726         1.416870
 C        -1.680108         2.209432         2.218153
 C        -0.758765         2.035814         1.078114
 H         0.862493        -0.243680         1.190507
 H        -2.761965         0.155733        -0.662728
 H        -2.576524         0.251282         1.136746
 H        -2.614019         2.228721        -1.880401
 H        -1.504855         3.530528        -1.292602
 H        -0.688482         0.660566        -1.962596
 H         0.301585         2.137038        -1.348607
 H        -1.392620         3.054727         2.980362
 H        -2.022141         1.328150         2.722144
 H         0.157117         2.667159         0.956722
