19
Iteration:   313charge 0 multiplicity 1
 O         0.362333        -0.266668         0.335489
 C        -0.666855         0.720777         0.161418
 C        -2.168547         0.493336         0.630595
 C        -2.168920         1.992379         0.336730
 C        -1.988267         2.273985        -1.087098
 C        -0.622126         1.467368        -1.274117
 O        -2.778521         2.862011         1.283872
 C        -1.613744         2.574525         2.047408
 C        -0.660381         2.057590         0.965029
 H        -0.108703        -1.113783         0.170759
 H        -2.975315        -0.114126         0.172288
 H        -2.086821         0.097036         1.645483
 H        -2.798792         1.786290        -1.671274
 H        -1.969404         3.335384        -1.215848
 H        -0.544460         0.813174        -2.196456
 H         0.140851         2.218164        -1.239269
 H        -1.327224         3.484034         2.571228
 H        -1.754401         1.849239         2.866470
 H         0.174525         2.809352         0.760327
