19
Iteration:  2273
 O         0.377806        -0.309036         0.349126
 C        -0.671559         0.666077         0.203150
 C        -2.151622         0.487943         0.475491
 C        -2.077108         2.082408         0.266653
 C        -1.899775         2.490641        -1.131557
 C        -0.727276         1.394156        -1.243478
 O        -2.763109         2.804411         1.283821
 C        -1.659066         2.479002         2.203842
 C        -0.742801         2.067781         1.066323
 H         0.185284        -1.025794        -0.299144
 H        -2.755183         0.014051        -0.277536
 H        -2.346878         0.339436         1.534197
 H        -2.821712         2.363882        -1.726406
 H        -1.490114         3.459207        -1.275309
 H        -0.906814         0.668660        -2.080624
 H         0.154173         2.040607        -1.327935
 H        -1.379725         3.318268         2.820536
 H        -1.958927         1.590954         2.780329
 H         0.060932         2.933136         0.779504
