19
Iteration:   324charge 0 multiplicity 1
 O         0.380245        -0.250079         0.301158
 C        -0.629892         0.739976         0.166691
 C        -2.148914         0.452224         0.623944
 C        -2.198890         1.997703         0.378340
 C        -2.055847         2.241654        -1.083888
 C        -0.647105         1.414458        -1.204698
 O        -2.777059         2.997491         1.211731
 C        -1.624560         2.474473         2.187010
 C        -0.635098         2.077834         0.922523
 H         0.213160        -1.139707        -0.019046
 H        -2.692881        -0.213402        -0.072351
 H        -2.187768         0.433287         1.706422
 H        -2.793380         1.997370        -1.889911
 H        -1.833269         3.278848        -1.193762
 H        -0.657509         0.742739        -2.133150
 H         0.319569         1.894807        -1.248743
 H        -1.289253         3.375077         2.661521
 H        -2.139110         1.694661         2.751375
 H         0.116450         2.851667         0.489578
