19
Iteration:  3009
 O         0.377929        -0.232281         0.308528
 C        -0.629855         0.763787         0.203436
 C        -2.276986         0.538493         0.263347
 C        -2.134403         2.070488         0.377012
 C        -1.808245         2.406820        -1.100080
 C        -0.644447         1.364828        -1.262249
 O        -2.793547         2.837965         1.373255
 C        -1.640993         2.432733         2.307923
 C        -0.821971         1.958802         1.035742
 H         0.675823        -0.332486        -0.613174
 H        -2.656879         0.143275        -0.681923
 H        -2.701394        -0.061727         1.161682
 H        -2.673144         2.116018        -1.738998
 H        -1.322477         3.366662        -1.293694
 H        -0.691967         0.521493        -2.002530
 H         0.254370         1.936889        -1.301223
 H        -1.133542         3.339661         2.731287
 H        -2.122881         1.719879         3.033542
 H        -0.075678         2.775401         1.039711
