19
Iteration:  3829charge 0 multiplicity 1
 O         0.200962        -0.440772         0.298345
 C        -0.622185         0.721884         0.190932
 C        -2.122981         0.519970         0.182525
 C        -2.123080         2.114416         0.279558
 C        -1.791331         2.548013        -1.163068
 C        -0.524161         1.552738        -1.310405
 O        -2.903077         2.701048         1.491914
 C        -1.738174         2.450684         2.305961
 C        -0.755381         2.051595         1.108966
 H         0.968092        -0.283443         0.880380
 H        -2.503259         0.093262        -0.806964
 H        -2.430835         0.081015         1.134198
 H        -2.360478         2.163863        -1.967383
 H        -1.565524         3.698547        -1.277185
 H        -0.679821         0.859561        -2.068568
 H         0.493898         1.914964        -1.357585
 H        -1.357543         3.250620         2.898083
 H        -1.944383         1.632868         3.055035
 H         0.147950         2.551913         0.871352
