19
Iteration:  1745charge 0 multiplicity 1
 O         0.384623        -0.271651         0.346467
 C        -0.665186         0.700686         0.162575
 C        -2.224173         0.510011         0.363244
 C        -2.149844         2.186082         0.280006
 C        -1.848090         2.350547        -1.217350
 C        -0.662458         1.328225        -1.167236
 O        -2.753957         2.982898         1.303777
 C        -1.704041         2.379947         2.270905
 C        -0.758681         2.041041         1.109483
 H         0.945640        -0.396584        -0.465620
 H        -2.683590        -0.140573        -0.387599
 H        -2.395857         0.111106         1.397299
 H        -2.712331         1.862735        -1.764350
 H        -1.787544         3.338790        -1.556948
 H        -0.664592         0.493715        -1.914548
 H         0.215115         1.910199        -1.398479
 H        -1.358675         2.928778         3.093718
 H        -2.160561         1.471704         2.846128
 H         0.082151         2.739176         1.265784
