19
Iteration:   852charge 0 multiplicity 1
 O         0.379953        -0.263254         0.271242
 C        -0.597969         0.753007         0.237999
 C        -2.156242         0.449268         0.449768
 C        -2.184739         1.992188         0.340138
 C        -1.761699         2.414687        -1.175557
 C        -0.667110         1.335556        -1.230562
 O        -2.810796         2.874765         1.320320
 C        -1.663502         2.489116         2.217226
 C        -0.836971         2.154012         0.959561
 H         0.455294        -0.746974         1.116196
 H        -2.594055        -0.061102        -0.414228
 H        -2.377246        -0.029766         1.432545
 H        -2.594744         2.115082        -1.905326
 H        -1.666979         3.477803        -1.174917
 H        -1.106139         0.515157        -1.858362
 H         0.255699         1.720727        -1.605715
 H        -1.466630         3.187559         3.088146
 H        -1.996447         1.580773         2.777876
 H        -0.171433         3.055050         0.627032
