19
Iteration:   825charge 0 multiplicity 1
 O         0.421038        -0.083695         0.501072
 C        -0.670302         0.743070         0.144334
 C        -2.172974         0.504364         0.364205
 C        -2.098936         2.201111         0.311607
 C        -1.891525         2.394361        -1.228251
 C        -0.742546         1.211926        -1.307992
 O        -2.772336         2.814149         1.350719
 C        -1.644007         2.360197         2.229997
 C        -0.768695         2.060950         0.968222
 H         0.261071        -1.038482         0.635317
 H        -2.678987        -0.136094        -0.397895
 H        -2.336101         0.228219         1.409362
 H        -2.828396         2.211089        -1.706585
 H        -1.494904         3.439135        -1.414781
 H        -0.806631         0.385273        -2.000398
 H         0.169842         1.829998        -1.610995
 H        -1.400643         3.135692         2.933672
 H        -2.095680         1.596253         2.916010
 H         0.124018         2.608099         0.959702
