19
Iteration:  3592
 O         0.236625        -0.427637         0.307539
 C        -0.670998         0.715123         0.143916
 C        -2.151211         0.506206         0.227106
 C        -2.127956         2.130957         0.325814
 C        -1.810572         2.565633        -1.128226
 C        -0.543008         1.568725        -1.094551
 O        -2.818501         2.729922         1.363567
 C        -1.755506         2.353652         2.263507
 C        -0.744001         2.017047         1.025511
 H         1.083619        -0.025294         0.568232
 H        -2.513410         0.026828        -0.613609
 H        -2.366438         0.032385         1.131894
 H        -2.518523         2.153998        -1.877231
 H        -1.508872         3.612337        -1.313303
 H        -0.664618         1.088898        -2.005849
 H         0.304967         2.261972        -1.192050
 H        -1.406364         3.115033         2.908131
 H        -2.105655         1.487514         2.784799
 H         0.055716         2.757605         0.852566
