19
Iteration:  2621
 O         0.453373        -0.144034         0.424855
 C        -0.711062         0.637455         0.135336
 C        -2.285672         0.499526         0.455302
 C        -2.081258         2.108409         0.394702
 C        -1.880904         2.417486        -1.114670
 C        -0.768619         1.403598        -1.388776
 O        -2.783770         2.872815         1.307286
 C        -1.574923         2.436955         2.225801
 C        -0.712332         1.916587         1.031650
 H         0.426065        -0.848944        -0.244120
 H        -2.956138         0.034797        -0.358460
 H        -2.351486         0.076255         1.520128
 H        -2.871691         2.244582        -1.645359
 H        -1.444212         3.438010        -1.307274
 H        -1.008834         0.589935        -2.103622
 H         0.261385         1.718611        -1.582142
 H        -1.136884         3.370096         2.638468
 H        -2.037161         1.760787         3.015887
 H         0.008041         2.568451         0.624029
