19
Iteration:  2002
 O         0.350347        -0.220013         0.175095
 C        -0.685647         0.682775         0.197115
 C        -2.211252         0.560372         0.516432
 C        -2.054127         2.120430         0.314465
 C        -1.852958         2.353344        -1.187708
 C        -0.680177         1.338733        -1.295499
 O        -2.707363         2.906903         1.295433
 C        -1.812637         2.425615         2.267164
 C        -0.675198         1.996286         1.119770
 H         0.484934        -0.751888         0.988648
 H        -2.909296         0.061810        -0.060015
 H        -2.426750         0.432704         1.584810
 H        -2.640714         1.935736        -1.831993
 H        -1.564658         3.305520        -1.496278
 H        -0.668411         0.543345        -2.042381
 H         0.189837         1.935349        -1.397771
 H        -1.584336         3.205711         3.009139
 H        -2.093633         1.556951         2.848174
 H         0.014948         2.706662         0.815316
