19
Iteration:  2705
 O         0.373984        -0.210761         0.390552
 C        -0.666954         0.709519         0.203535
 C        -2.186190         0.501080         0.360690
 C        -2.175499         2.117957         0.285070
 C        -1.938574         2.368916        -1.171688
 C        -0.766010         1.428406        -1.240289
 O        -2.742628         2.827263         1.359278
 C        -1.531493         2.377816         2.168636
 C        -0.686482         2.073705         1.020585
 H         0.003302        -1.065020         0.683795
 H        -2.548920        -0.111971        -0.426084
 H        -2.592656         0.317475         1.433384
 H        -2.782014         2.236943        -1.864233
 H        -1.573147         3.433630        -1.132115
 H        -1.110115         0.667263        -2.062611
 H         0.191243         1.837285        -1.430910
 H        -1.134652         3.204466         2.705080
 H        -1.989490         1.669606         2.878877
 H         0.275164         2.669763         0.835802
