19
Iteration:  3885charge 0 multiplicity 1
 O         0.342434        -0.296107         0.398470
 C        -0.679479         0.755201         0.166054
 C        -2.194232         0.511049         0.274536
 C        -2.152953         2.097246         0.283599
 C        -1.755401         2.549373        -1.127801
 C        -0.565765         1.490719        -1.292772
 O        -2.765438         2.897182         1.382831
 C        -1.779224         2.193256         2.314453
 C        -0.894304         1.947813         1.037475
 H         1.127615        -0.245245        -0.173406
 H        -2.857073        -0.146005        -0.375446
 H        -2.266017         0.063205         1.278139
 H        -2.391501         2.427970        -1.978476
 H        -1.326191         3.616059        -1.310784
 H        -0.678690         0.739271        -1.983568
 H         0.401140         1.963463        -1.484096
 H        -1.114991         2.894923         2.858421
 H        -2.266244         1.430886         2.954919
 H        -0.190500         2.749931         0.990082
