19
Iteration:   490charge 0 multiplicity 1
 O         0.382247        -0.316051         0.341264
 C        -0.540514         0.722149         0.137101
 C        -2.216093         0.472855         0.423731
 C        -2.129546         2.051926         0.378401
 C        -1.929462         2.272873        -1.105526
 C        -0.774466         1.222453        -1.339988
 O        -2.787694         2.896330         1.311622
 C        -1.614488         2.622820         2.253573
 C        -0.737392         2.171001         0.984044
 H         0.688264        -0.011010         1.217993
 H        -2.658618        -0.167854        -0.306972
 H        -2.431316         0.018431         1.405889
 H        -2.806259         2.306773        -1.627852
 H        -1.394587         3.270544        -1.291573
 H        -0.989260         0.404481        -2.023944
 H         0.073892         1.720629        -1.806555
 H        -1.205564         3.496996         2.698560
 H        -1.849940         1.827277         3.035268
 H        -0.213839         3.060546         0.610219
