19
Iteration:  3075
 O         0.266573        -0.255404         0.366708
 C        -0.613940         0.817143         0.196566
 C        -2.131552         0.534446         0.290697
 C        -2.086157         2.248717         0.287343
 C        -1.835000         2.500636        -1.232395
 C        -0.624346         1.376520        -1.303352
 O        -2.797972         2.654826         1.478062
 C        -1.681135         2.317615         2.284403
 C        -0.746756         2.118226         1.041801
 H        -0.352642        -0.948654         0.658443
 H        -2.513341         0.019127        -0.653974
 H        -2.564245         0.027414         1.167562
 H        -2.752318         2.138258        -1.641446
 H        -1.482752         3.483035        -1.561244
 H        -0.828300         0.587646        -2.064829
 H         0.248022         1.914545        -1.558633
 H        -1.360251         2.998192         3.067010
 H        -1.932834         1.309493         2.626667
 H         0.092541         2.773511         0.806953
