19
Iteration:  3890
 O         0.376354        -0.306666         0.419652
 C        -0.659469         0.746071         0.175030
 C        -2.207188         0.515147         0.202557
 C        -2.134601         2.119526         0.308857
 C        -1.785143         2.523329        -1.117148
 C        -0.594509         1.460181        -1.261411
 O        -2.747527         2.894619         1.407908
 C        -1.805386         2.225548         2.301114
 C        -0.878815         1.974208         0.988952
 H         1.090901        -0.320775        -0.247863
 H        -2.885770         0.046766        -0.467685
 H        -2.371360         0.015908         1.170505
 H        -2.496531         2.410890        -1.989986
 H        -1.345539         3.474520        -1.088946
 H        -0.690005         0.682073        -2.155548
 H         0.353710         2.062317        -1.224106
 H        -1.116970         2.909972         2.864810
 H        -2.240575         1.341172         2.779497
 H        -0.161674         2.849289         1.087116
