19
Iteration:  3484
 O         0.276080        -0.327033         0.428642
 C        -0.597304         0.767172         0.147502
 C        -2.202342         0.541117         0.248451
 C        -2.179009         2.151687         0.333778
 C        -1.720222         2.587451        -1.132748
 C        -0.569206         1.440347        -1.305295
 O        -2.808622         2.806109         1.398486
 C        -1.732285         2.151042         2.278944
 C        -0.829679         2.042182         1.010367
 H         1.228722        -0.112718         0.361707
 H        -2.592909         0.077647        -0.585344
 H        -2.529244         0.146197         1.151666
 H        -2.515739         2.455981        -1.936543
 H        -1.516925         3.653710        -1.051655
 H        -0.920628         0.759936        -2.108407
 H         0.358899         1.863798        -1.587482
 H        -1.549964         2.861189         3.061008
 H        -1.996446         1.255755         2.793511
 H        -0.069146         2.844870         0.838186
