19
Iteration:  1474charge 0 multiplicity 1
 O         0.440212        -0.203985         0.376740
 C        -0.618478         0.698320         0.179232
 C        -2.187827         0.465724         0.384679
 C        -2.197064         2.113654         0.273679
 C        -1.864211         2.420578        -1.175289
 C        -0.604119         1.371633        -1.198520
 O        -2.774098         2.988165         1.349097
 C        -1.750054         2.373666         2.284123
 C        -0.815156         1.972462         0.982482
 H         0.212542        -1.075320        -0.020100
 H        -2.724822        -0.031833        -0.489242
 H        -2.438199        -0.191191         1.196222
 H        -2.725359         2.283270        -1.859917
 H        -1.479905         3.409596        -1.418004
 H        -0.624618         0.557744        -2.019569
 H         0.351508         1.881554        -1.249205
 H        -1.303766         3.208175         3.011824
 H        -2.063845         1.446670         2.842545
 H         0.004729         2.631961         0.769831
