19
Iteration:  3661charge 0 multiplicity 1
 O         0.242844        -0.411653         0.350511
 C        -0.624127         0.789207         0.275138
 C        -2.131829         0.602348         0.293754
 C        -2.157393         2.151315         0.205362
 C        -1.764839         2.583765        -1.214006
 C        -0.649421         1.579419        -1.263945
 O        -2.842034         2.708957         1.412917
 C        -1.713628         2.196892         2.237249
 C        -0.712874         2.015107         1.084132
 H         1.062229        -0.212149         0.835197
 H        -2.528057         0.056111        -0.558480
 H        -2.471267         0.101904         1.202356
 H        -2.449254         2.512734        -2.169803
 H        -1.311105         3.544136        -1.021791
 H        -0.919897         0.681736        -1.956651
 H         0.276094         1.985856        -1.508448
 H        -1.600470         3.064376         2.920385
 H        -2.024136         1.245089         2.663276
 H         0.015572         2.887120         1.104620
