19
Iteration:  1042charge 0 multiplicity 1
 O         0.265865        -0.321195         0.377810
 C        -0.608735         0.758245         0.165195
 C        -2.102752         0.521656         0.261287
 C        -2.085637         2.117359         0.329610
 C        -1.913214         2.380935        -1.230010
 C        -0.593257         1.459454        -1.221007
 O        -2.828112         2.666002         1.320494
 C        -1.663105         2.439100         2.312847
 C        -0.726505         2.203820         1.057842
 H        -0.197598        -0.930844         1.010352
 H        -2.716919        -0.061102        -0.426929
 H        -2.440927         0.254739         1.244906
 H        -2.717686         1.880849        -1.819319
 H        -1.681982         3.393211        -1.717677
 H        -0.554053         0.733253        -1.986133
 H         0.376295         2.083555        -1.332993
 H        -1.417484         3.375260         2.863401
 H        -1.951924         1.750902         3.137358
 H         0.039787         3.079722         0.879318
