19
Iteration:  1673charge 0 multiplicity 1
 O         0.284289        -0.177973         0.571611
 C        -0.691560         0.811215         0.166766
 C        -2.222979         0.553011         0.233898
 C        -2.188404         2.022287         0.281624
 C        -1.835003         2.443317        -1.164181
 C        -0.627297         1.362692        -1.271389
 O        -2.805249         2.635636         1.411884
 C        -1.541257         2.483287         2.176084
 C        -0.721164         2.029209         1.017573
 H         0.111838        -0.944671        -0.007354
 H        -2.871328         0.150428        -0.581720
 H        -2.461555         0.127225         1.252618
 H        -2.515820         2.499305        -1.993384
 H        -1.188236         3.441952        -1.103139
 H        -0.817781         0.648197        -2.079378
 H         0.353695         1.892904        -1.574723
 H        -1.139338         3.502733         2.673284
 H        -1.792904         1.821651         3.010669
 H         0.005804         2.720297         0.533382
