19
Iteration:   780
 O         0.237646        -0.280279         0.533663
 C        -0.684900         0.750201         0.187138
 C        -2.053019         0.413930         0.355577
 C        -2.185492         2.106878         0.300786
 C        -1.972843         2.364490        -1.244461
 C        -0.622744         1.334396        -1.179048
 O        -2.799808         2.843410         1.392307
 C        -1.554350         2.471264         2.206109
 C        -0.772408         2.161300         0.880129
 H         0.967769        -0.316940        -0.126647
 H        -2.512160        -0.034551        -0.508253
 H        -2.220208        -0.033321         1.352073
 H        -2.776440         1.998427        -1.941583
 H        -1.578694         3.340262        -1.507306
 H        -0.712475         0.668300        -2.055979
 H         0.369729         1.938262        -1.240590
 H        -1.214606         3.254500         2.954259
 H        -1.618797         1.603573         2.843798
 H        -0.150128         2.989466         0.488867
