19
Iteration:  1771charge 0 multiplicity 1
 O         0.268018        -0.279334         0.495454
 C        -0.652999         0.711733         0.190811
 C        -2.203089         0.493451         0.378857
 C        -2.128238         2.038867         0.306199
 C        -1.802691         2.430604        -1.154806
 C        -0.647081         1.393064        -1.294311
 O        -2.769709         2.817170         1.346013
 C        -1.632634         2.458441         2.224366
 C        -0.789039         2.083852         0.935299
 H         0.886007        -0.375289        -0.275152
 H        -2.738314         0.040361        -0.490383
 H        -2.416112         0.010530         1.328834
 H        -2.639420         2.280549        -1.830482
 H        -1.634027         3.589826        -1.142963
 H        -0.793333         0.553401        -1.995359
 H         0.350998         1.885829        -1.553147
 H        -1.149814         3.089295         3.029723
 H        -1.978865         1.641247         2.839319
 H        -0.173678         3.003738         0.734104
