19
Iteration:   132charge 0 multiplicity 1
 O         0.343982        -0.149313         0.578467
 C        -0.614806         0.781999         0.212083
 C        -2.122952         0.438983         0.229511
 C        -2.132756         2.064688         0.254318
 C        -2.001569         2.385336        -1.240737
 C        -0.747622         1.299839        -1.278473
 O        -2.744381         2.815428         1.410513
 C        -1.535101         2.477384         2.285420
 C        -0.799373         2.047947         0.961450
 H         0.510057        -0.735286        -0.167694
 H        -2.573505        -0.076589        -0.591137
 H        -2.456247         0.019717         1.221553
 H        -2.846483         2.198287        -1.863656
 H        -1.555688         3.409081        -1.373194
 H        -0.952783         0.455909        -1.872225
 H         0.198887         1.771912        -1.589554
 H        -1.138487         3.351499         2.742732
 H        -1.686459         1.790781         3.081559
 H        -0.221064         2.854458         0.655034
