19
Iteration:    78charge 0 multiplicity 1
 O         0.397182        -0.210242         0.315749
 C        -0.641661         0.771522         0.263212
 C        -2.084705         0.454999         0.444385
 C        -2.152638         2.085304         0.286817
 C        -1.903245         2.358397        -1.180865
 C        -0.715256         1.371409        -1.287257
 O        -2.752975         2.855621         1.315517
 C        -1.701260         2.428973         2.233640
 C        -0.778505         2.090164         0.999850
 H         0.145731        -0.898633         0.947761
 H        -2.499493        -0.212721        -0.298666
 H        -2.318271         0.049522         1.450315
 H        -2.723217         2.129132        -1.820910
 H        -1.637795         3.428653        -1.326514
 H        -0.959952         0.560057        -1.899559
 H         0.283504         1.755727        -1.581602
 H        -1.384566         3.301242         2.755797
 H        -1.996925         1.604651         2.878770
 H        -0.063671         2.881599         0.809848
