19
Iteration:  3815charge 0 multiplicity 1
 O         0.139058        -0.328062         0.344803
 C        -0.690807         0.764342         0.094509
 C        -2.175883         0.461487         0.227986
 C        -2.112917         2.071909         0.318709
 C        -1.731521         2.488552        -1.193913
 C        -0.493591         1.591278        -1.234805
 O        -2.812878         2.709030         1.427364
 C        -1.681497         2.358748         2.295593
 C        -0.765565         1.972308         1.063974
 H         0.811319         0.013759         0.960824
 H        -2.725329        -0.040472        -0.561002
 H        -2.430676        -0.073181         1.178965
 H        -2.719487         2.484562        -1.786063
 H        -1.398743         3.592623        -1.298247
 H        -0.362648         0.892818        -2.156970
 H         0.323215         2.313871        -1.290367
 H        -1.365164         3.289203         2.757293
 H        -1.927005         1.630733         3.103092
 H        -0.190543         2.930553         1.008145
