19
Iteration:  1846charge 0 multiplicity 1
 O         0.265516        -0.304546         0.317919
 C        -0.629954         0.773937         0.216710
 C        -2.211039         0.475338         0.437465
 C        -2.190365         2.091642         0.331389
 C        -1.884401         2.346111        -1.154914
 C        -0.603490         1.440514        -1.266883
 O        -2.703694         2.919185         1.315722
 C        -1.685577         2.404037         2.163585
 C        -0.753798         1.969279         1.044275
 H         1.073418        -0.000742         0.737416
 H        -2.802162         0.045803        -0.444705
 H        -2.409676         0.058035         1.433948
 H        -2.658491         1.938306        -1.798064
 H        -1.576013         3.473180        -1.377405
 H        -0.831534         0.617521        -1.969683
 H         0.415425         1.948154        -1.329131
 H        -1.263965         3.342476         2.652670
 H        -1.999185         1.521794         2.883724
 H        -0.016929         2.856562         0.947628
