19
Iteration:  4075charge 0 multiplicity 1
 O         0.349608        -0.321648         0.361694
 C        -0.708554         0.746830         0.122596
 C        -2.294779         0.602075         0.257900
 C        -2.103712         2.148828         0.277023
 C        -1.694433         2.547913        -1.114059
 C        -0.511839         1.514372        -1.310227
 O        -2.899659         2.596147         1.439936
 C        -1.745662         2.387852         2.272327
 C        -0.709088         2.018106         1.032624
 H         0.206911        -0.985686         1.056286
 H        -2.846237         0.114949        -0.546680
 H        -2.644201         0.085363         1.149784
 H        -2.587744         2.376691        -1.849149
 H        -1.342162         3.533989        -1.265019
 H        -0.634710         0.813506        -2.154280
 H         0.437220         1.990057        -1.265005
 H        -1.341781         3.294051         2.908195
 H        -1.773437         1.532241         2.902440
 H        -0.037879         2.902678         0.915004
