19
Iteration:  3201
 O         0.255728        -0.283026         0.488526
 C        -0.656887         0.706677         0.163951
 C        -2.175508         0.556677         0.283818
 C        -2.168465         2.121162         0.254580
 C        -1.808354         2.519171        -1.154910
 C        -0.580277         1.543400        -1.248095
 O        -2.826624         2.729252         1.466044
 C        -1.623777         2.326257         2.179361
 C        -0.771187         1.974056         0.995970
 H         0.363773        -0.743129        -0.363936
 H        -2.586729         0.141997        -0.596879
 H        -2.659327        -0.009864         1.187295
 H        -2.505310         2.438696        -2.017787
 H        -1.459354         3.536099        -1.246164
 H        -0.457920         0.872851        -2.094242
 H         0.369137         2.182847        -1.222239
 H        -1.315976         3.075601         2.952831
 H        -1.879410         1.371660         2.789627
 H         0.093262         2.669788         0.792168
