19
Iteration:  3313charge 0 multiplicity 1
 O         0.259539        -0.453551         0.392665
 C        -0.625543         0.692826         0.122478
 C        -2.255495         0.532825         0.139221
 C        -2.091672         2.045545         0.302906
 C        -1.799263         2.523091        -1.043196
 C        -0.531857         1.686726        -1.243052
 O        -2.777738         2.763552         1.419678
 C        -1.735054         2.402249         2.247418
 C        -0.796955         1.924482         1.032226
 H         1.048279        -0.009862         0.765969
 H        -2.932560        -0.008143        -0.570058
 H        -2.612927         0.193297         1.028280
 H        -2.432717         2.249928        -1.920707
 H        -1.950174         3.542197        -1.012126
 H        -0.531927         1.026311        -2.178876
 H         0.375661         2.243771        -1.167108
 H        -1.167667         3.346460         2.549470
 H        -1.981401         1.682616         3.039930
 H        -0.076599         2.713241         0.910595
