19
Iteration:  1108charge 0 multiplicity 1
 O         0.403277        -0.161413         0.385467
 C        -0.633605         0.741909         0.186851
 C        -2.190442         0.402422         0.310300
 C        -2.118592         2.110783         0.325976
 C        -1.802896         2.463285        -1.182283
 C        -0.757999         1.349721        -1.289833
 O        -2.784358         2.942977         1.327933
 C        -1.801252         2.323495         2.221901
 C        -0.672510         1.908027         1.067722
 H         0.620838         0.032644         1.298122
 H        -2.647090        -0.182059        -0.471770
 H        -2.514827        -0.011326         1.250582
 H        -2.663022         2.336924        -1.814628
 H        -1.321789         3.469167        -1.278252
 H        -0.894382         0.621986        -2.003078
 H         0.257611         1.752055        -1.603991
 H        -1.400367         3.191190         2.719033
 H        -2.207034         1.556451         2.936744
 H         0.017122         2.782098         0.998490
