19
Iteration:  4142
 O         0.344766        -0.348624         0.245392
 C        -0.612358         0.734816         0.144794
 C        -2.171845         0.595107         0.309973
 C        -2.047440         2.137474         0.304557
 C        -1.818140         2.560575        -1.149198
 C        -0.551288         1.470483        -1.238303
 O        -2.809608         2.847711         1.355827
 C        -1.885605         2.222216         2.259843
 C        -0.759441         1.951299         1.112790
 H         0.448516        -0.441863         1.209292
 H        -2.758889        -0.084158        -0.346966
 H        -2.334474         0.139666         1.245851
 H        -2.699479         2.228686        -1.763309
 H        -1.594827         3.622024        -1.434266
 H        -0.606912         0.869528        -2.157799
 H         0.354277         2.125978        -1.347333
 H        -1.540064         3.011685         2.968088
 H        -2.406710         1.552285         2.986532
 H         0.152016         2.572460         1.214726
