19
Iteration:   179charge 0 multiplicity 1
 O         0.242352        -0.393752         0.289215
 C        -0.657268         0.720483         0.204961
 C        -2.058470         0.496015         0.551201
 C        -2.161559         2.123665         0.260762
 C        -1.914731         2.353424        -1.199152
 C        -0.642598         1.391296        -1.268477
 O        -2.838341         2.704303         1.348116
 C        -1.591230         2.606640         2.209585
 C        -0.794798         2.153057         1.006982
 H         1.089359         0.104576         0.276728
 H        -2.601140        -0.363106        -0.052655
 H        -2.157732         0.378544         1.659742
 H        -2.678196         1.933512        -1.880104
 H        -1.593179         3.328074        -1.512312
 H        -0.637803         0.597037        -2.000242
 H         0.276405         2.066778        -1.325118
 H        -1.246438         3.613627         2.558662
 H        -1.814152         2.015955         3.130539
 H         0.154685         2.857147         0.891282
