19
Iteration:  4467
 O         0.206432        -0.314596         0.506606
 C        -0.596256         0.769540         0.069875
 C        -2.125772         0.514051         0.199103
 C        -2.136095         2.067368         0.259140
 C        -1.816185         2.608265        -1.050029
 C        -0.586566         1.525785        -1.276742
 O        -2.788832         2.742938         1.408804
 C        -1.656275         2.284900         2.222187
 C        -0.786901         2.003657         0.988920
 H        -0.240583        -0.754092         1.246889
 H        -2.525685        -0.056439        -0.655257
 H        -2.335443        -0.000233         1.147249
 H        -2.521958         2.418393        -1.942414
 H        -1.483708         3.591897        -1.133872
 H        -0.540250         0.766980        -2.176208
 H         0.272001         2.223501        -1.473607
 H        -1.322192         2.995649         3.080027
 H        -1.959487         1.419489         2.757277
 H        -0.156066         2.903464         0.693650
