19
Iteration:  1363charge 0 multiplicity 1
 O         0.452042        -0.226288         0.517257
 C        -0.672837         0.724417         0.177555
 C        -2.227549         0.493125         0.351941
 C        -2.053972         2.161433         0.293353
 C        -1.886019         2.392930        -1.154980
 C        -0.656254         1.455885        -1.353533
 O        -2.767273         2.911788         1.299888
 C        -1.780175         2.295885         2.259950
 C        -0.755347         1.976186         1.035542
 H         0.617121        -0.891369        -0.152514
 H        -2.858939         0.109111        -0.467305
 H        -2.430967         0.058318         1.369041
 H        -2.840405         2.324307        -1.786526
 H        -1.444792         3.354329        -1.092331
 H        -0.746840         0.616317        -2.135386
 H         0.289334         1.880780        -1.580992
 H        -1.326767         3.050358         2.947306
 H        -2.323041         1.382330         2.699427
 H        -0.079217         2.803651         0.950863
