19
Iteration:   408charge 0 multiplicity 1
 O         0.274230        -0.201025         0.623520
 C        -0.639935         0.768662         0.179674
 C        -2.052616         0.413842         0.406247
 C        -2.252693         2.018399         0.302560
 C        -1.975781         2.334894        -1.251711
 C        -0.749106         1.327335        -1.337120
 O        -2.747703         2.846672         1.398346
 C        -1.378192         2.530098         2.190063
 C        -0.831158         2.145979         0.882632
 H         0.273605        -0.913249        -0.067926
 H        -2.740274        -0.088165        -0.402405
 H        -2.257217         0.003429         1.418303
 H        -2.848157         2.131431        -2.019661
 H        -1.592875         3.326582        -1.284475
 H        -0.953941         0.532047        -2.050362
 H         0.244598         1.813386        -1.397813
 H        -0.999683         3.443828         2.797161
 H        -1.483650         1.704192         2.882341
 H        -0.094349         2.898423         0.456690
