19
Iteration:  3697
 O         0.145737        -0.363454         0.325634
 C        -0.675931         0.762462         0.088073
 C        -2.155051         0.519541         0.158090
 C        -2.158786         2.025946         0.402777
 C        -1.752659         2.387531        -1.106443
 C        -0.457788         1.615278        -1.225906
 O        -2.887875         2.748362         1.409822
 C        -1.704792         2.426076         2.293103
 C        -0.751189         1.978943         1.102260
 H         1.036116        -0.066832         0.068364
 H        -2.683100         0.253111        -0.832257
 H        -2.410417        -0.174432         1.035011
 H        -2.404894         2.317868        -1.927539
 H        -1.425370         3.469950        -1.142741
 H        -0.256264         1.057417        -2.130188
 H         0.463922         2.260599        -1.067547
 H        -1.342570         3.349974         2.770131
 H        -1.851741         1.724104         3.183800
 H         0.026334         2.694903         0.874286
