19
Iteration:  2861
 O         0.402166        -0.236275         0.323118
 C        -0.622866         0.734971         0.090329
 C        -2.093522         0.497998         0.419444
 C        -2.076834         2.169222         0.329350
 C        -1.827808         2.464053        -1.176315
 C        -0.771075         1.343784        -1.290895
 O        -2.837557         2.871358         1.323770
 C        -1.677918         2.360427         2.274027
 C        -0.782525         2.029003         1.150507
 H        -0.000678        -1.080408         0.640346
 H        -2.580085        -0.111118        -0.437447
 H        -2.462369         0.098736         1.276687
 H        -2.561447         2.303967        -2.008333
 H        -1.436574         3.530004        -1.294905
 H        -1.199689         0.566423        -1.936944
 H         0.225696         1.547363        -1.799703
 H        -1.247422         3.116111         2.957915
 H        -2.116207         1.591842         2.850367
 H         0.001407         2.738711         0.982398
