19
Iteration:  4552charge 0 multiplicity 1
 O         0.330892        -0.298785         0.241158
 C        -0.634064         0.682958         0.150292
 C        -2.143568         0.500694         0.347686
 C        -2.119647         2.062047         0.286345
 C        -1.783658         2.593451        -0.975417
 C        -0.572584         1.518311        -1.201676
 O        -2.795661         2.775435         1.243680
 C        -1.817618         2.325934         2.265020
 C        -0.754602         2.030343         1.093890
 H        -0.017754        -1.083159         0.683116
 H        -2.790435        -0.070277        -0.350972
 H        -2.272341        -0.024619         1.253885
 H        -2.272413         2.669328        -1.983717
 H        -1.488890         3.665870        -0.872888
 H        -0.934573         0.742927        -1.970456
 H         0.318607         1.875201        -1.566570
 H        -1.588347         3.300368         2.786424
 H        -2.125569         1.445941         2.806477
 H        -0.058768         2.933127         0.995275
