19
Iteration:  1975
 O         0.381871        -0.285960         0.261950
 C        -0.660075         0.734806         0.241763
 C        -2.172565         0.516443         0.364204
 C        -2.179021         2.154904         0.339978
 C        -1.890601         2.347271        -1.155839
 C        -0.649058         1.321160        -1.229447
 O        -2.749825         2.995808         1.352171
 C        -1.658643         2.364371         2.224704
 C        -0.775622         2.075025         1.037614
 H         0.259806        -1.042256         0.877750
 H        -2.796189         0.025961        -0.491231
 H        -2.389217        -0.078057         1.286057
 H        -2.580717         1.935211        -1.905759
 H        -1.633057         3.421590        -1.509696
 H        -0.775187         0.432328        -1.883136
 H         0.305246         1.844573        -1.577475
 H        -1.273743         3.123645         2.962167
 H        -1.918490         1.558463         3.005880
 H        -0.060994         2.911956         0.669797
