19
Iteration:  1857charge 0 multiplicity 1
 O         0.339019        -0.325776         0.316897
 C        -0.687740         0.678651         0.198771
 C        -2.230372         0.518478         0.427624
 C        -2.110936         2.027882         0.272699
 C        -1.903699         2.353139        -1.168986
 C        -0.647676         1.486522        -1.244305
 O        -2.670879         2.966528         1.253246
 C        -1.737987         2.385383         2.273735
 C        -0.720360         2.001331         1.061064
 H         1.043043         0.115761         0.800559
 H        -2.870004        -0.250320        -0.095055
 H        -2.423205         0.330884         1.476176
 H        -2.689451         2.046073        -1.851807
 H        -1.909939         3.523937        -1.284085
 H        -0.722832         0.693264        -2.025012
 H         0.300527         1.996649        -1.611660
 H        -1.342590         3.171005         3.025849
 H        -2.286739         1.592857         2.951574
 H         0.099455         2.755955         0.774214
