19
Iteration:  1464charge 0 multiplicity 1
 O         0.384013        -0.226997         0.360624
 C        -0.629907         0.668400         0.153030
 C        -2.181981         0.413075         0.361331
 C        -2.110424         2.120835         0.337595
 C        -1.905839         2.467911        -1.071243
 C        -0.533484         1.382405        -1.175684
 O        -2.813988         2.890289         1.280663
 C        -1.695361         2.444704         2.204780
 C        -0.813366         2.032843         0.990798
 H         0.178596        -1.155533         0.081347
 H        -2.869588         0.027026        -0.444769
 H        -2.359549         0.119755         1.383355
 H        -2.668018         2.196056        -1.805603
 H        -1.589025         3.568995        -1.161950
 H        -0.791761         0.561887        -1.930704
 H         0.448405         1.836789        -1.436686
 H        -1.432209         3.186108         3.133382
 H        -2.124706         1.564301         2.695575
 H        -0.043216         2.774076         0.755759
