19
Iteration:  4480charge 0 multiplicity 1
 O         0.275234        -0.314194         0.463172
 C        -0.692501         0.742155         0.181294
 C        -2.146381         0.443312         0.208671
 C        -2.136311         2.123240         0.279058
 C        -1.830844         2.570796        -1.206411
 C        -0.561336         1.598791        -1.234885
 O        -2.820172         2.795849         1.404498
 C        -1.642245         2.181288         2.229965
 C        -0.731930         2.040998         0.963214
 H        -0.089232        -0.505436         1.357534
 H        -2.687209        -0.029863        -0.588826
 H        -2.628158         0.123866         1.199455
 H        -2.711588         2.473978        -1.857437
 H        -1.608482         3.640332        -1.164357
 H        -0.731125         0.941746        -2.110369
 H         0.537753         1.934807        -1.171540
 H        -1.204246         2.986788         2.874486
 H        -1.979534         1.263549         2.722643
 H         0.140646         2.702302         0.939218
