19
Iteration:  2227charge 0 multiplicity 1
 O         0.386449        -0.190914         0.394943
 C        -0.689398         0.734543         0.177971
 C        -2.244847         0.516217         0.393056
 C        -2.106959         2.132667         0.316936
 C        -1.885117         2.389725        -1.254716
 C        -0.683189         1.337007        -1.296142
 O        -2.730043         2.840772         1.380976
 C        -1.629915         2.347379         2.358686
 C        -0.740210         2.090763         0.946393
 H        -0.064129        -1.040444         0.602062
 H        -2.641310        -0.031327        -0.491011
 H        -2.527347         0.204422         1.386986
 H        -2.692101         2.127673        -1.938393
 H        -1.532125         3.402036        -1.490232
 H        -0.776654         0.560372        -2.098726
 H         0.234423         1.891663        -1.404936
 H        -1.311081         3.203773         2.828839
 H        -2.049599         1.555596         2.996861
 H         0.039801         2.802937         0.628985
