19
Iteration:  3146charge 0 multiplicity 1
 O         0.282918        -0.399458         0.238051
 C        -0.577683         0.751763         0.205917
 C        -2.149549         0.509304         0.289950
 C        -2.147741         2.105336         0.318642
 C        -1.856493         2.539722        -1.071920
 C        -0.610992         1.523129        -1.218464
 O        -2.761788         2.836389         1.345880
 C        -1.759521         2.350193         2.235390
 C        -0.786292         1.961737         1.096527
 H         1.179772        -0.181570         0.532594
 H        -2.494170        -0.128603        -0.487341
 H        -2.553940         0.063404         1.305448
 H        -2.632682         2.297830        -1.889975
 H        -1.513448         3.574203        -1.172597
 H        -0.896479         0.621914        -1.748517
 H         0.441273         1.857164        -1.571840
 H        -1.492623         3.304447         2.766282
 H        -2.167638         1.481582         2.871104
 H        -0.131604         2.867795         0.914433
