19
Iteration:  4801
 O         0.324998        -0.294951         0.205635
 C        -0.630126         0.746830         0.169068
 C        -2.101349         0.508832         0.262253
 C        -2.059364         2.060062         0.311624
 C        -1.670171         2.587409        -1.077602
 C        -0.532113         1.508718        -1.211410
 O        -2.876858         2.836479         1.334621
 C        -1.883913         2.287733         2.323689
 C        -0.856151         1.992601         1.089415
 H         0.166677        -0.879324         0.958396
 H        -2.534867        -0.084955        -0.624902
 H        -2.443589         0.011634         1.150528
 H        -2.537473         2.347560        -1.683447
 H        -1.239799         3.597844        -1.071572
 H        -0.777119         0.689331        -1.992071
 H         0.480576         1.713176        -1.534212
 H        -1.585874         3.069625         2.963704
 H        -2.339998         1.462095         2.911713
 H        -0.139467         2.754736         1.003706
