19
Iteration:   254
 O         0.366628        -0.092216         0.531791
 C        -0.671755         0.757822         0.138754
 C        -2.184595         0.517804         0.453344
 C        -2.197235         2.087863         0.249122
 C        -1.872757         2.372982        -1.173080
 C        -0.795176         1.236485        -1.334105
 O        -2.773507         2.719995         1.402188
 C        -1.466396         2.387070         2.228244
 C        -0.741359         2.164559         0.828363
 H        -0.046360        -0.718982         1.141765
 H        -2.674073        -0.139547        -0.297147
 H        -2.328151         0.383883         1.523894
 H        -2.679866         2.254049        -1.912227
 H        -1.552919         3.428876        -1.248400
 H        -1.066438         0.528012        -2.064229
 H         0.193262         1.661301        -1.669031
 H        -1.182417         3.375143         2.561993
 H        -1.543589         1.613789         2.961399
 H        -0.035155         2.923233         0.510858
