19
Iteration:  2369
 O         0.276325        -0.323289         0.312934
 C        -0.611251         0.723857         0.106443
 C        -2.153124         0.495397         0.440920
 C        -2.139204         2.102215         0.376233
 C        -1.831197         2.463001        -1.160751
 C        -0.705902         1.307197        -1.330394
 O        -2.737543         2.871882         1.374402
 C        -1.732573         2.450834         2.248712
 C        -0.749843         2.087626         1.066658
 H         1.189063         0.046179         0.218735
 H        -2.746484        -0.079367        -0.336895
 H        -2.055823         0.020684         1.442849
 H        -2.649701         2.124298        -1.838535
 H        -1.557235         3.513110        -1.376229
 H        -1.110513         0.452691        -1.966314
 H         0.288460         1.617666        -1.588726
 H        -1.325555         3.176827         2.894666
 H        -1.959615         1.476039         2.785950
 H        -0.199395         2.960943         0.932229
