19
Iteration:   853
 O         0.376756        -0.271729         0.264608
 C        -0.606690         0.748264         0.231261
 C        -2.155613         0.441395         0.447034
 C        -2.184670         2.006208         0.348969
 C        -1.764418         2.412843        -1.166410
 C        -0.653013         1.331190        -1.229453
 O        -2.813035         2.865951         1.315162
 C        -1.669352         2.497578         2.218876
 C        -0.833000         2.157635         0.958797
 H         0.483881        -0.700548         1.127496
 H        -2.610030        -0.074132        -0.378079
 H        -2.371210        -0.007847         1.443612
 H        -2.641683         2.131792        -1.913958
 H        -1.665597         3.466527        -1.171968
 H        -1.094294         0.511834        -1.868747
 H         0.292536         1.772767        -1.605632
 H        -1.466314         3.212509         3.107315
 H        -1.980731         1.605506         2.766986
 H        -0.140540         3.083608         0.638257
