19
Iteration:  3719charge 0 multiplicity 1
 O         0.266777        -0.408826         0.282261
 C        -0.666754         0.710249         0.242221
 C        -2.182479         0.475126         0.252195
 C        -2.136742         2.128827         0.229825
 C        -1.798258         2.597427        -1.101663
 C        -0.490955         1.569222        -1.118319
 O        -2.816270         2.732029         1.371750
 C        -1.711792         2.371124         2.280320
 C        -0.861669         1.991739         1.025309
 H         1.020725        -0.272107        -0.337291
 H        -2.508462        -0.263845        -0.589973
 H        -2.535828         0.267505         1.326122
 H        -2.388630         2.382971        -1.935571
 H        -1.590878         3.718638        -1.228704
 H        -0.573485         0.895990        -1.946509
 H         0.580388         1.967171        -1.124242
 H        -1.437866         3.209314         2.907828
 H        -1.966108         1.618199         3.112819
 H        -0.212513         2.817808         0.772640
