19
Iteration:  4918charge 0 multiplicity 1
 O         0.332704        -0.336749         0.428779
 C        -0.672479         0.806066         0.161162
 C        -2.209598         0.530740         0.235109
 C        -2.117584         2.114524         0.298440
 C        -1.653643         2.615959        -1.080911
 C        -0.532044         1.502331        -1.315584
 O        -2.855246         2.761289         1.337163
 C        -1.843419         2.210817         2.235902
 C        -0.836775         1.959963         1.118410
 H         1.148902        -0.081855        -0.078387
 H        -2.716633        -0.026611        -0.594972
 H        -2.470768         0.117474         1.153858
 H        -2.500074         2.387642        -1.711955
 H        -1.276951         3.651610        -1.070995
 H        -0.782856         0.917608        -2.164171
 H         0.490060         1.920310        -1.591819
 H        -1.500460         2.924965         2.976324
 H        -2.125783         1.369400         2.933599
 H        -0.104587         2.783631         1.204049
