19
Iteration:    93charge 0 multiplicity 1
 O         0.446655        -0.064662         0.345719
 C        -0.637979         0.752456         0.144974
 C        -2.219380         0.566526         0.566884
 C        -2.107649         2.103026         0.288315
 C        -1.909903         2.335488        -1.164775
 C        -0.705602         1.263175        -1.204026
 O        -2.828577         2.900676         1.243889
 C        -1.610574         2.218489         2.233476
 C        -0.735250         2.073229         0.957445
 H         0.074823        -0.917946         0.675056
 H        -2.958443         0.103211        -0.158832
 H        -2.438111         0.369953         1.617107
 H        -2.710182         2.062425        -1.912937
 H        -1.545040         3.326896        -1.407358
 H        -0.704024         0.450109        -2.014504
 H         0.253260         1.881956        -1.367526
 H        -1.216766         2.974719         2.975286
 H        -2.144453         1.316688         2.657385
 H         0.042093         2.964911         0.767925
