19
Iteration:  3326
 O         0.226224        -0.357459         0.440886
 C        -0.652216         0.720222         0.109916
 C        -2.287302         0.510833         0.217836
 C        -2.189530         2.053645         0.292009
 C        -1.812914         2.563598        -1.080993
 C        -0.509937         1.617428        -1.224914
 O        -2.815440         2.748278         1.346029
 C        -1.606745         2.312876         2.238519
 C        -0.743922         1.947963         1.065002
 H         1.168375        -0.074174         0.447457
 H        -2.723717         0.193054        -0.759014
 H        -2.624873         0.039422         1.108209
 H        -2.664231         2.347083        -1.773120
 H        -1.310561         3.560165        -1.079598
 H        -0.531276         1.067933        -2.183125
 H         0.402246         2.235928        -1.226761
 H        -1.323734         3.126001         2.933811
 H        -1.959218         1.512398         2.878035
 H         0.035762         2.656484         0.795599
