19
Iteration:  2323
 O         0.273018        -0.278199         0.511549
 C        -0.705181         0.749870         0.176658
 C        -2.209103         0.504038         0.261340
 C        -2.161836         2.139555         0.270940
 C        -1.915841         2.380901        -1.197273
 C        -0.627611         1.383080        -1.255359
 O        -2.721643         2.767880         1.501919
 C        -1.597140         2.438107         2.280671
 C        -0.694128         2.097980         0.869574
 H         0.858306        -0.426112        -0.262430
 H        -2.598223         0.104769        -0.742583
 H        -2.531624         0.253708         1.259766
 H        -2.687060         2.000607        -1.895043
 H        -1.727956         3.491826        -1.429244
 H        -1.034220         0.597658        -1.932008
 H         0.343064         1.900194        -1.423133
 H        -1.310942         3.317208         2.961904
 H        -1.822729         1.480246         2.910952
 H         0.038680         2.768576         0.609369
