19
Iteration:  3860charge 0 multiplicity 1
 O         0.191481        -0.314458         0.273187
 C        -0.692558         0.766864         0.201026
 C        -2.147713         0.524456         0.313572
 C        -2.044321         2.102506         0.319281
 C        -1.728320         2.528857        -1.074645
 C        -0.622893         1.456488        -1.241729
 O        -2.841261         2.712184         1.332040
 C        -1.798751         2.330383         2.235905
 C        -0.695451         2.059040         1.087626
 H         1.118102        -0.016821         0.291973
 H        -2.700577         0.038400        -0.530728
 H        -2.425294         0.082208         1.277592
 H        -2.435858         2.505912        -1.919290
 H        -1.283805         3.628493        -1.107677
 H        -0.677764         0.715410        -2.073549
 H         0.390344         1.886313        -1.310511
 H        -1.517630         3.050217         2.948287
 H        -2.051301         1.390073         2.816535
 H         0.149299         2.773626         0.967718
