19
Iteration:  3539
 O         0.287746        -0.381783         0.298563
 C        -0.631001         0.715468         0.220663
 C        -2.168339         0.622443         0.203162
 C        -2.061675         2.106765         0.307413
 C        -1.769267         2.516122        -1.153006
 C        -0.582552         1.474710        -1.165071
 O        -2.855449         2.739022         1.384097
 C        -1.787758         2.296107         2.261523
 C        -0.765518         2.059522         1.134997
 H         1.094864        -0.359905        -0.257151
 H        -2.675230         0.226447        -0.629292
 H        -2.623298         0.230885         1.051717
 H        -2.642750         2.414966        -1.894999
 H        -1.508045         3.559621        -1.018741
 H        -0.684577         0.850081        -2.080525
 H         0.239234         2.095164        -1.356624
 H        -1.533978         3.157075         2.881506
 H        -1.976273         1.385124         2.796106
 H         0.002896         2.868424         1.012848
