19
Iteration:  4685
 O         0.341812        -0.246435         0.272008
 C        -0.678202         0.767136         0.196266
 C        -2.256741         0.553743         0.283981
 C        -2.104943         2.143074         0.275780
 C        -1.672797         2.453086        -1.142307
 C        -0.509813         1.490744        -1.184666
 O        -2.874099         2.740427         1.351014
 C        -1.764054         2.345256         2.291780
 C        -0.811156         1.953949         1.148964
 H         0.445756        -0.467846        -0.661573
 H        -2.784605         0.114602        -0.555785
 H        -2.851584         0.199955         1.201403
 H        -2.500005         2.059983        -1.803494
 H        -1.393305         3.477695        -1.335459
 H        -0.714613         0.730549        -1.975123
 H         0.520378         1.787192        -1.269389
 H        -1.303269         3.257415         2.892546
 H        -2.073798         1.536927         2.989968
 H         0.162251         2.563402         1.252052
