19
Iteration:    27
 O         0.259075        -0.269134         0.277918
 C        -0.658848         0.724631         0.236913
 C        -2.201841         0.446975         0.410708
 C        -2.194120         1.965552         0.224904
 C        -1.811786         2.418164        -1.216704
 C        -0.592560         1.470034        -1.155242
 O        -2.883934         2.577456         1.464519
 C        -1.555781         2.703368         2.122605
 C        -0.717956         2.079100         1.011009
 H         0.616933        -0.334139         1.156460
 H        -2.724038        -0.193220        -0.342675
 H        -2.496839         0.356883         1.489961
 H        -2.666270         2.194235        -1.877690
 H        -1.621515         3.508550        -1.325639
 H        -0.550425         0.724112        -1.954669
 H         0.402009         2.114906        -1.205535
 H        -1.199949         3.751681         2.051148
 H        -1.690222         2.015384         2.982238
 H         0.134605         2.867129         0.673527
