19
Iteration:  3611
 O         0.348879        -0.299717         0.377755
 C        -0.672316         0.734311         0.201185
 C        -2.232198         0.497501         0.141807
 C        -2.097501         2.102232         0.269551
 C        -1.820247         2.577609        -1.111251
 C        -0.594773         1.503649        -1.317018
 O        -2.822436         2.817335         1.399053
 C        -1.691723         2.284608         2.331848
 C        -0.824863         1.886728         1.096267
 H         1.179312         0.102056         0.682181
 H        -2.666961         0.094317        -0.852223
 H        -2.965883         0.178854         0.975472
 H        -2.587975         2.436035        -1.782387
 H        -1.328775         3.581774        -1.247111
 H        -0.556450         0.739104        -2.063866
 H         0.472708         1.999951        -1.279174
 H        -1.271671         3.174487         2.783807
 H        -2.080612         1.457903         3.013565
 H         0.000847         2.554472         1.131084
