19
Iteration:  4955
 O         0.168348        -0.389146         0.234766
 C        -0.676509         0.774818         0.217252
 C        -2.156977         0.498651         0.195941
 C        -2.101308         2.121764         0.321537
 C        -1.704451         2.474115        -1.099620
 C        -0.398224         1.637232        -1.115611
 O        -2.905512         2.710443         1.318014
 C        -1.775768         2.329798         2.266586
 C        -0.780921         2.043032         1.172527
 H         0.961251        -0.045488        -0.247355
 H        -2.516078         0.062300        -0.769110
 H        -2.534893        -0.129848         1.105096
 H        -2.446949         1.977689        -1.777240
 H        -1.760668         3.494918        -1.482550
 H        -0.216863         0.825651        -1.891214
 H         0.428750         2.251093        -0.873931
 H        -1.506523         3.269592         2.765304
 H        -2.118579         1.512994         2.933228
 H         0.044327         2.727636         1.029585
