19
Iteration:   379charge 0 multiplicity 1
 O         0.391576        -0.120783         0.612618
 C        -0.671781         0.771351         0.176565
 C        -2.228995         0.593275         0.461757
 C        -2.133360         2.151335         0.288708
 C        -1.907422         2.323134        -1.166800
 C        -0.823496         1.207432        -1.341114
 O        -2.790188         2.725237         1.368728
 C        -1.435177         2.387917         2.117761
 C        -0.766058         2.134638         0.881829
 H         0.784965        -0.499330        -0.180838
 H        -3.080949         0.082593        -0.057537
 H        -2.473506         0.376566         1.516695
 H        -2.812416         2.215783        -1.762158
 H        -1.443044         3.273289        -1.456258
 H        -1.158809         0.395665        -2.059978
 H         0.145764         1.522234        -1.677144
 H        -1.119966         3.274127         2.588439
 H        -1.499188         1.671559         2.963644
 H         0.051319         2.837286         0.547730
