19
Iteration:  3113charge 0 multiplicity 1
 O         0.361264        -0.184768         0.321035
 C        -0.749415         0.690547         0.069779
 C        -2.298326         0.483770         0.333571
 C        -2.127414         2.125034         0.368561
 C        -1.773798         2.503771        -1.047169
 C        -0.556074         1.435434        -1.309365
 O        -2.751340         2.811502         1.411855
 C        -1.722435         2.310418         2.196207
 C        -0.757036         1.918975         0.994236
 H         0.571927        -0.131997         1.260558
 H        -2.791737         0.020475        -0.507819
 H        -2.624630         0.101327         1.380215
 H        -2.628159         2.375836        -1.801722
 H        -1.341427         3.527767        -1.150581
 H        -0.672892         0.746999        -2.157820
 H         0.498704         1.956668        -1.440960
 H        -1.436703         3.152501         2.896119
 H        -2.001683         1.453615         2.928617
 H        -0.097751         2.798038         0.730132
