19
Iteration:  2343charge 0 multiplicity 1
 O         0.305124        -0.237053         0.492025
 C        -0.637119         0.704550         0.217031
 C        -2.236616         0.534748         0.382355
 C        -2.118382         2.128999         0.313508
 C        -1.925002         2.439362        -1.177408
 C        -0.746666         1.413456        -1.314646
 O        -2.741319         2.838629         1.321165
 C        -1.569918         2.308613         2.202641
 C        -0.744214         1.986117         0.981054
 H         1.072071        -0.145995        -0.115761
 H        -2.775656        -0.006148        -0.408832
 H        -2.451303         0.249806         1.406900
 H        -2.801199         2.282586        -1.812549
 H        -1.581006         3.510426        -1.258355
 H        -0.784845         0.579201        -1.988264
 H         0.249670         1.935422        -1.348599
 H        -1.053172         3.198190         2.709018
 H        -1.728019         1.424123         2.795450
 H        -0.017247         2.802223         0.898424
