19
Iteration:  1600charge 0 multiplicity 1
 O         0.335922        -0.232332         0.355904
 C        -0.646768         0.710351         0.210436
 C        -2.148566         0.484916         0.384832
 C        -2.064517         2.111559         0.295921
 C        -1.875122         2.356786        -1.212690
 C        -0.670206         1.391116        -1.245068
 O        -2.747310         2.911078         1.323012
 C        -1.759993         2.420824         2.275955
 C        -0.776167         2.015275         1.084013
 H         0.491407        -0.788899        -0.405498
 H        -2.675448        -0.139039        -0.330681
 H        -2.314681         0.140256         1.394880
 H        -2.815823         2.160881        -1.767195
 H        -1.461467         3.327467        -1.400696
 H        -0.457759         0.577949        -1.941978
 H         0.184574         2.091875        -1.264951
 H        -1.563694         3.326926         2.889266
 H        -2.121437         1.497350         2.780855
 H         0.034003         2.708240         0.804295
