19
Iteration:    89
 O         0.427493        -0.105152         0.332779
 C        -0.640558         0.763003         0.158322
 C        -2.174280         0.530786         0.555198
 C        -2.142437         2.092033         0.310370
 C        -1.907741         2.360886        -1.187384
 C        -0.698544         1.270496        -1.199164
 O        -2.799070         2.882486         1.232445
 C        -1.630463         2.257573         2.245030
 C        -0.736759         2.100821         0.943392
 H         0.087837        -0.903659         0.742663
 H        -2.794837         0.042799        -0.180213
 H        -2.449004         0.250291         1.595846
 H        -2.684489         2.083300        -1.845514
 H        -1.587548         3.415963        -1.384832
 H        -0.802993         0.566654        -1.937883
 H         0.212256         1.878469        -1.436963
 H        -1.278048         2.965193         2.944465
 H        -2.150114         1.507465         2.822014
 H        -0.011118         2.904693         0.857722
