19
Iteration:  3260
 O         0.343194        -0.298743         0.196533
 C        -0.589668         0.742829         0.132988
 C        -2.195071         0.577531         0.386804
 C        -2.081797         2.222863         0.321665
 C        -1.710651         2.575070        -1.150872
 C        -0.595963         1.376003        -1.222326
 O        -2.857154         2.761352         1.366302
 C        -1.761208         2.229015         2.309970
 C        -0.831425         2.050436         1.056101
 H         0.296694        -0.639627         1.110909
 H        -2.844691         0.038090        -0.386505
 H        -2.615316         0.299740         1.289282
 H        -2.512970         2.280117        -1.910438
 H        -1.376187         3.651720        -1.331172
 H        -0.865204         0.619106        -2.019078
 H         0.415346         1.681191        -1.410905
 H        -1.472985         2.935049         3.107227
 H        -2.084161         1.276848         2.646879
 H        -0.104626         2.820307         1.016960
