19
Iteration:  1969charge 0 multiplicity 1
 O         0.338430        -0.251223         0.313306
 C        -0.687169         0.697925         0.217845
 C        -2.122483         0.447984         0.297822
 C        -2.158498         2.117691         0.345095
 C        -1.866223         2.368473        -1.141891
 C        -0.672853         1.334736        -1.242118
 O        -2.763523         2.959765         1.407156
 C        -1.629388         2.460220         2.216305
 C        -0.718676         2.060429         1.008328
 H         0.106946        -0.899509         0.975369
 H        -2.693032         0.083823        -0.488610
 H        -2.570302         0.039421         1.205274
 H        -2.689909         2.023438        -1.798188
 H        -1.630401         3.336741        -1.492547
 H        -0.816912         0.555962        -1.998601
 H         0.262985         1.800382        -1.451384
 H        -1.485972         3.232384         2.963721
 H        -1.898497         1.492823         2.657043
 H        -0.093068         2.804721         0.623187
