19
Iteration:  2641
 O         0.332218        -0.238212         0.334932
 C        -0.674528         0.706329         0.213062
 C        -2.181187         0.515577         0.384847
 C        -2.140948         2.058431         0.272829
 C        -1.991534         2.401084        -1.151873
 C        -0.669217         1.383164        -1.195110
 O        -2.730023         2.776097         1.409251
 C        -1.580891         2.514714         2.217513
 C        -0.719632         2.076195         0.967268
 H         0.067257        -1.065948        -0.123888
 H        -2.600132        -0.049423        -0.403385
 H        -2.484731         0.367840         1.449125
 H        -2.642751         2.153135        -1.989281
 H        -1.515524         3.385081        -1.294447
 H        -0.854527         0.594464        -1.993797
 H         0.245242         1.878803        -1.367569
 H        -1.050725         3.294926         2.699079
 H        -1.896645         1.775039         3.004246
 H         0.014359         2.842846         0.753445
