19
Iteration:  2867
 O         0.376222        -0.271908         0.297038
 C        -0.613861         0.725697         0.090880
 C        -2.088037         0.487498         0.402609
 C        -2.103916         2.107201         0.382630
 C        -1.840562         2.466235        -1.235756
 C        -0.727372         1.370750        -1.357714
 O        -2.778632         2.890456         1.353306
 C        -1.772633         2.372594         2.319599
 C        -0.763193         2.080477         1.138512
 H         0.018334        -0.948208         0.890949
 H        -2.615182        -0.112775        -0.295838
 H        -2.252033        -0.105104         1.446392
 H        -2.528367         2.318295        -2.058766
 H        -1.333670         3.405096        -1.226826
 H        -1.265159         0.592224        -1.971930
 H         0.214425         1.637939        -1.768631
 H        -1.416130         3.317991         2.775444
 H        -2.131482         1.483528         2.949855
 H         0.087894         2.844122         1.098413
