19
Iteration:  2619
 O         0.452625        -0.136744         0.428237
 C        -0.716026         0.632851         0.140592
 C        -2.288653         0.494921         0.454423
 C        -2.067860         2.104230         0.395294
 C        -1.895837         2.418182        -1.107106
 C        -0.752950         1.404973        -1.401317
 O        -2.793413         2.884571         1.312671
 C        -1.579079         2.435378         2.226345
 C        -0.706294         1.905554         1.025242
 H         0.473414        -0.829302        -0.250739
 H        -2.877452         0.059227        -0.304272
 H        -2.367173         0.103398         1.503558
 H        -2.825338         2.270716        -1.690974
 H        -1.418516         3.396825        -1.310693
 H        -1.076087         0.571426        -2.107474
 H         0.218889         1.683902        -1.626241
 H        -1.061824         3.262177         2.647873
 H        -2.086147         1.790582         2.982241
 H        -0.021925         2.626415         0.645088
