19
Iteration:  4474charge 0 multiplicity 1
 O         0.240263        -0.322588         0.500109
 C        -0.641601         0.750934         0.088666
 C        -2.130178         0.456706         0.217753
 C        -2.137250         2.075009         0.233803
 C        -1.833522         2.622961        -1.125884
 C        -0.579946         1.584172        -1.262282
 O        -2.824843         2.781424         1.413503
 C        -1.641179         2.244786         2.240610
 C        -0.732363         2.028025         0.952844
 H        -0.233615        -0.578200         1.298410
 H        -2.588510        -0.091515        -0.645943
 H        -2.492968         0.066155         1.140280
 H        -2.646993         2.276546        -1.794854
 H        -1.423720         3.683585        -1.070605
 H        -0.640316         0.709044        -1.948075
 H         0.359009         2.077340        -1.180802
 H        -1.198308         2.881528         2.988126
 H        -2.054163         1.322356         2.748226
 H         0.045355         2.808482         0.835213
