19
Iteration:  1231
 O         0.387397        -0.144720         0.324989
 C        -0.729130         0.688976         0.185765
 C        -2.214135         0.554897         0.430259
 C        -2.110585         2.119058         0.252126
 C        -1.762173         2.403909        -1.204614
 C        -0.632275         1.316874        -1.276236
 O        -2.834629         2.852084         1.371344
 C        -1.745313         2.274799         2.276747
 C        -0.700258         2.057913         0.978775
 H         0.406632        -0.331775         1.277341
 H        -2.889676         0.107089        -0.298232
 H        -2.320901         0.351311         1.469003
 H        -2.537237         2.324150        -2.001589
 H        -1.291356         3.390814        -1.283898
 H        -0.874336         0.576544        -2.046632
 H         0.250736         1.890643        -1.494962
 H        -1.551160         2.982774         3.015025
 H        -1.944652         1.273344         2.827109
 H         0.054908         2.770420         0.812968
