19
Iteration:  1398
 O         0.302997        -0.193342         0.515368
 C        -0.682441         0.799554         0.193103
 C        -2.203287         0.523251         0.272283
 C        -2.186411         2.095497         0.296594
 C        -1.845659         2.361833        -1.220197
 C        -0.540003         1.427487        -1.251641
 O        -2.806988         2.740019         1.406677
 C        -1.600301         2.347459         2.202801
 C        -0.748913         2.097252         0.990685
 H        -0.138086        -1.003283         0.257424
 H        -2.713913         0.133386        -0.661377
 H        -2.642244         0.044680         1.157480
 H        -2.592347         2.490941        -2.048495
 H        -1.486576         3.426037        -1.149624
 H        -0.624464         0.517040        -1.962195
 H         0.327823         2.046756        -1.401523
 H        -1.092133         3.115019         2.952111
 H        -1.841631         1.521858         2.850378
 H        -0.027451         2.782431         0.596114
