19
Iteration:   698
 O         0.386059        -0.166393         0.436749
 C        -0.631806         0.829987         0.147622
 C        -2.129159         0.502271         0.388068
 C        -2.170382         2.020542         0.295901
 C        -1.877629         2.267385        -1.179976
 C        -0.686002         1.210147        -1.254464
 O        -2.755787         2.961766         1.454593
 C        -1.621966         2.410622         2.199842
 C        -0.839997         2.123740         0.894276
 H        -0.086257        -0.909622         0.886315
 H        -2.620789        -0.096750        -0.409305
 H        -2.350063         0.155545         1.389340
 H        -2.700844         2.084279        -1.838132
 H        -1.453644         3.285834        -1.447899
 H        -0.855859         0.532028        -2.075096
 H         0.133991         1.786468        -1.589731
 H        -1.086454         3.131797         2.686880
 H        -1.884352         1.556861         2.803142
 H        -0.271448         3.028315         0.581087
