19
Iteration:   880
 O         0.286110        -0.337900         0.269219
 C        -0.617434         0.714686         0.176284
 C        -2.091567         0.582380         0.462027
 C        -2.088722         2.062151         0.320783
 C        -1.855749         2.349382        -1.238343
 C        -0.646525         1.436869        -1.235745
 O        -2.891864         2.736175         1.341790
 C        -1.711428         2.573562         2.199461
 C        -0.717897         1.973842         1.081934
 H         0.899498        -0.177059         0.985698
 H        -2.741208         0.028522        -0.275054
 H        -2.288793         0.275615         1.476929
 H        -2.697322         2.007554        -1.780171
 H        -1.778741         3.468434        -1.499111
 H        -0.597259         0.770942        -2.087543
 H         0.223252         2.190740        -1.224656
 H        -1.242820         3.513343         2.366700
 H        -1.951625         2.169029         3.206968
 H         0.033517         2.700306         0.988151
