19
Iteration:  2136
 O         0.384735        -0.238580         0.171486
 C        -0.741956         0.725442         0.258025
 C        -2.300515         0.522193         0.497076
 C        -2.109791         2.013504         0.255301
 C        -1.815523         2.377779        -1.163312
 C        -0.674953         1.411579        -1.260410
 O        -2.745792         2.853096         1.241995
 C        -1.695249         2.482495         2.240576
 C        -0.669694         1.985093         1.141363
 H         0.706912        -0.617459         0.989373
 H        -2.821094        -0.200917        -0.275857
 H        -2.378544         0.382677         1.610315
 H        -2.756192         2.089903        -1.682818
 H        -1.569190         3.486623        -1.211138
 H        -0.851602         0.655665        -2.001352
 H         0.299996         1.978226        -1.249991
 H        -1.277061         3.259271         3.017702
 H        -2.022660         1.744724         2.958748
 H        -0.039272         2.819016         0.728722
