19
Iteration:  4404charge 0 multiplicity 1
 O         0.337631        -0.268057         0.142255
 C        -0.605189         0.728892         0.172113
 C        -2.284469         0.533898         0.337257
 C        -2.135431         2.075190         0.367106
 C        -1.729870         2.489876        -1.106239
 C        -0.509804         1.435502        -1.212664
 O        -2.822406         2.868700         1.294069
 C        -1.775508         2.347093         2.280041
 C        -0.763920         1.935511         1.146400
 H         0.242251        -0.683448         1.008896
 H        -2.787642        -0.000560        -0.482495
 H        -2.645802         0.062834         1.298073
 H        -2.463467         2.187060        -1.834495
 H        -1.431641         3.539498        -1.061230
 H        -0.685915         0.872830        -2.078804
 H         0.354176         2.140312        -1.304114
 H        -1.478673         3.122160         3.044447
 H        -2.147896         1.450501         2.829923
 H        -0.125108         2.794581         0.917471
