19
Iteration:   947charge 0 multiplicity 1
 O         0.345391        -0.149154         0.562439
 C        -0.629332         0.777140         0.216813
 C        -2.145364         0.546397         0.424941
 C        -2.112438         2.063927         0.198551
 C        -1.834925         2.471525        -1.233857
 C        -0.748909         1.305250        -1.398519
 O        -2.763406         2.768015         1.375487
 C        -1.723148         2.307867         2.242314
 C        -0.715815         2.058087         1.025041
 H         0.940545        -0.262303        -0.213987
 H        -2.850307         0.012571        -0.270535
 H        -2.555517         0.354061         1.430954
 H        -2.630863         2.382568        -1.920368
 H        -1.406896         3.533443        -1.225899
 H        -1.016935         0.511804        -2.132677
 H         0.280736         1.661795        -1.697285
 H        -1.409005         2.921629         3.024288
 H        -2.139174         1.425070         2.788557
 H        -0.182001         2.843859         0.654570
