19
Iteration:  3503charge 0 multiplicity 1
 O         0.295070        -0.207276         0.472609
 C        -0.687419         0.681623         0.073238
 C        -2.217142         0.455465         0.199121
 C        -2.106297         2.063492         0.216084
 C        -1.732982         2.553139        -1.122970
 C        -0.604799         1.471887        -1.286920
 O        -2.759233         2.870742         1.483441
 C        -1.750696         2.242658         2.257619
 C        -0.883561         1.924870         1.077994
 H         0.965399         0.279107        -0.056308
 H        -2.775853        -0.019350        -0.558488
 H        -2.357026        -0.000959         1.194074
 H        -2.292862         2.701545        -2.002135
 H        -1.021358         3.451493        -0.932752
 H        -0.733022         0.875337        -2.093965
 H         0.356308         2.071870        -1.381075
 H        -1.152637         2.816777         2.908883
 H        -2.167219         1.378397         2.809345
 H        -0.189155         2.755449         0.990658
