19
Iteration:  3169charge 0 multiplicity 1
 O         0.160576        -0.372449         0.297537
 C        -0.652783         0.753131         0.102816
 C        -2.094116         0.601529         0.298910
 C        -2.076382         2.183915         0.353707
 C        -1.773384         2.419101        -1.146750
 C        -0.561029         1.433241        -1.251472
 O        -2.899962         2.709328         1.370206
 C        -1.651402         2.359973         2.365107
 C        -0.760629         2.125868         1.114604
 H         0.945175        -0.209339        -0.280030
 H        -2.570366         0.186782        -0.559459
 H        -2.478639         0.021183         1.238953
 H        -2.612809         2.108279        -1.904259
 H        -1.350715         3.362284        -1.449950
 H        -0.561392         0.640802        -2.018671
 H         0.325858         2.149768        -1.348488
 H        -1.631041         3.183172         3.137401
 H        -1.938795         1.335596         2.695709
 H        -0.049370         2.952290         0.905829
