19
Iteration:  3322charge 0 multiplicity 1
 O         0.250425        -0.383449         0.440570
 C        -0.655919         0.719391         0.086610
 C        -2.297714         0.513969         0.188693
 C        -2.180853         2.014656         0.296865
 C        -1.796838         2.545430        -1.065925
 C        -0.506085         1.646423        -1.224134
 O        -2.810581         2.755614         1.362742
 C        -1.625434         2.355616         2.227324
 C        -0.745660         1.930402         1.052520
 H         1.187743        -0.177065         0.563916
 H        -2.792855         0.160865        -0.717522
 H        -2.742430         0.220767         1.154804
 H        -2.613865         2.349128        -1.749439
 H        -1.546935         3.570252        -1.080386
 H        -0.559514         1.095464        -2.204117
 H         0.354941         2.300850        -1.253917
 H        -1.262888         3.158611         2.915499
 H        -1.958818         1.542190         2.925215
 H         0.012855         2.747401         0.987599
