19
Iteration:  4826charge 0 multiplicity 1
 O         0.294804        -0.444101         0.237383
 C        -0.656124         0.765523         0.185914
 C        -2.170682         0.559593         0.195228
 C        -2.168855         2.068215         0.290755
 C        -1.811650         2.531995        -1.095019
 C        -0.517373         1.660414        -1.137435
 O        -2.852086         2.768189         1.248235
 C        -1.784660         2.335541         2.276774
 C        -0.701842         1.964096         1.194853
 H         0.648489        -0.586373         1.117571
 H        -2.592409         0.036183        -0.587207
 H        -2.332396        -0.118268         1.074376
 H        -2.636896         2.252623        -1.760715
 H        -1.426271         3.524768        -1.115853
 H        -0.310194         1.004087        -2.031515
 H         0.371834         2.249462        -1.175355
 H        -1.665410         3.309052         2.830418
 H        -2.227738         1.553314         2.870635
 H         0.235580         2.606292         1.202060
