19
Iteration:  3163
 O         0.184590        -0.397022         0.262995
 C        -0.643056         0.762269         0.170065
 C        -2.090792         0.559089         0.284390
 C        -2.053638         2.121616         0.330095
 C        -1.788478         2.434329        -1.130590
 C        -0.576747         1.404850        -1.230707
 O        -2.897845         2.760898         1.386765
 C        -1.719151         2.362976         2.333150
 C        -0.728980         2.159421         1.087805
 H         1.058530        -0.146290        -0.097942
 H        -2.593245         0.333754        -0.721235
 H        -2.448131         0.094530         1.111509
 H        -2.604276         2.112125        -1.717207
 H        -1.442224         3.494916        -1.253096
 H        -0.692401         0.754390        -2.121364
 H         0.219545         2.078072        -1.360868
 H        -1.479733         3.095305         3.082359
 H        -2.000688         1.416194         2.755236
 H         0.016522         2.929708         0.938269
