19
Iteration:  1834
 O         0.196937        -0.306336         0.349236
 C        -0.661807         0.747220         0.163397
 C        -2.118260         0.519938         0.356668
 C        -2.123719         2.108877         0.312732
 C        -1.843280         2.353032        -1.146748
 C        -0.631629         1.327030        -1.197353
 O        -2.841790         2.852709         1.389805
 C        -1.583314         2.464309         2.205026
 C        -0.774155         2.070215         0.991772
 H         1.092288        -0.034846         0.677224
 H        -2.580637         0.021333        -0.553927
 H        -2.459677        -0.129637         1.201473
 H        -2.685026         2.162325        -1.833809
 H        -1.522034         3.431393        -1.428801
 H        -0.515281         0.621032        -2.043538
 H         0.272529         1.984584        -1.384970
 H        -1.118767         3.289245         2.832659
 H        -1.957993         1.647065         2.980446
 H         0.035261         2.822571         0.642946
