19
Iteration:  3114charge 0 multiplicity 1
 O         0.357652        -0.184118         0.320830
 C        -0.751302         0.679808         0.064390
 C        -2.296884         0.473932         0.332809
 C        -2.117655         2.123033         0.373006
 C        -1.773905         2.506413        -1.045084
 C        -0.561887         1.444489        -1.318357
 O        -2.751868         2.818974         1.409896
 C        -1.729198         2.306587         2.198543
 C        -0.751964         1.922136         0.994778
 H         0.603748        -0.112255         1.255493
 H        -2.780408         0.005570        -0.475593
 H        -2.620434         0.096083         1.406553
 H        -2.648266         2.376157        -1.819809
 H        -1.323519         3.506493        -1.115545
 H        -0.646638         0.746188        -2.167289
 H         0.503743         1.937745        -1.399383
 H        -1.450769         3.180205         2.868858
 H        -2.012252         1.481656         2.927619
 H        -0.104122         2.792119         0.758536
