19
Iteration:  1953charge 0 multiplicity 1
 O         0.274562        -0.257331         0.442675
 C        -0.658691         0.753135         0.135081
 C        -2.245398         0.476711         0.310196
 C        -2.067004         2.066266         0.283361
 C        -1.895839         2.411008        -1.129459
 C        -0.690806         1.388172        -1.274999
 O        -2.738129         2.759907         1.364393
 C        -1.580632         2.488452         2.232510
 C        -0.744015         2.092412         0.953969
 H        -0.001282        -0.611019         1.295233
 H        -2.557028        -0.184397        -0.578084
 H        -2.521201        -0.030777         1.253078
 H        -2.741236         2.285385        -1.823799
 H        -1.494938         3.484587        -1.123316
 H        -0.824494         0.639184        -2.078886
 H         0.269294         1.957318        -1.495413
 H        -0.995328         3.309377         2.745631
 H        -1.819744         1.812950         3.164801
 H         0.111390         2.828406         0.734005
