19
Iteration:  2264
 O         0.423731        -0.293377         0.314573
 C        -0.647219         0.719574         0.237554
 C        -2.180093         0.471989         0.445679
 C        -2.152139         2.133857         0.336953
 C        -1.878080         2.424985        -1.121734
 C        -0.745099         1.399452        -1.252149
 O        -2.799461         2.882933         1.240174
 C        -1.660324         2.436787         2.284230
 C        -0.671313         2.006024         0.977432
 H         0.079606        -1.070096        -0.182797
 H        -2.728929        -0.038723        -0.294001
 H        -2.582244         0.055955         1.387732
 H        -2.740095         2.316568        -1.806599
 H        -1.594684         3.471240        -1.140574
 H        -0.782668         0.603411        -1.996958
 H         0.318354         1.744154        -1.377197
 H        -1.125945         3.320245         2.789085
 H        -2.114294         1.725394         3.014249
 H        -0.079743         2.977053         0.971167
