19
Iteration:  1175charge 0 multiplicity 1
 O         0.302136        -0.317812         0.355084
 C        -0.653965         0.774704         0.156653
 C        -2.175964         0.504244         0.395815
 C        -2.110208         2.033208         0.213916
 C        -1.856002         2.414162        -1.134689
 C        -0.519562         1.500301        -1.233510
 O        -2.825396         2.722656         1.377888
 C        -1.689259         2.523083         2.241354
 C        -0.757284         2.057280         1.029380
 H        -0.216581        -1.103959         0.637492
 H        -2.634009        -0.150831        -0.342719
 H        -2.473879         0.154064         1.373781
 H        -2.564983         1.954160        -1.792792
 H        -1.643139         3.505431        -1.309500
 H        -0.518895         0.862016        -2.060438
 H         0.418091         2.066966        -1.419695
 H        -1.324096         3.457573         2.538951
 H        -1.883088         1.891369         3.191973
 H        -0.218099         2.846649         0.566523
