19
Iteration:  1680charge 0 multiplicity 1
 O         0.269118        -0.229922         0.543976
 C        -0.642051         0.769462         0.154166
 C        -2.221019         0.512264         0.270679
 C        -2.176147         2.037939         0.259591
 C        -1.768115         2.441275        -1.086183
 C        -0.653343         1.365189        -1.311457
 O        -2.802285         2.670671         1.440772
 C        -1.575889         2.510967         2.166833
 C        -0.772278         2.118285         0.954485
 H         0.297705        -0.971915        -0.054918
 H        -2.569234        -0.082808        -0.582605
 H        -2.622305         0.158916         1.238252
 H        -2.588003         2.420540        -1.905146
 H        -1.378199         3.453691        -1.091714
 H        -0.750624         0.688141        -2.219547
 H         0.331934         1.818269        -1.311437
 H        -1.183574         3.347440         2.692634
 H        -1.870443         1.802203         3.033320
 H        -0.013409         2.893903         0.695973
