19
Iteration:  3339charge 0 multiplicity 1
 O         0.161416        -0.285865         0.401903
 C        -0.726329         0.753419         0.204475
 C        -2.122545         0.517023         0.210505
 C        -2.084952         2.159522         0.307274
 C        -1.763813         2.566653        -1.129504
 C        -0.581521         1.468449        -1.210576
 O        -2.805615         2.738820         1.389424
 C        -1.686852         2.203079         2.260833
 C        -0.770974         2.014931         0.990417
 H         1.020444         0.085805         0.133434
 H        -2.596246         0.022795        -0.635080
 H        -2.433155        -0.132840         1.116923
 H        -2.455132         2.555707        -1.997140
 H        -1.512904         3.731186        -1.128277
 H        -0.578925         0.753247        -2.003588
 H         0.414516         1.998237        -1.193406
 H        -1.344640         3.032927         2.849104
 H        -1.932539         1.301773         2.820351
 H        -0.021354         2.847389         0.917919
