19
Iteration:  3490charge 0 multiplicity 1
 O         0.313140        -0.306290         0.453445
 C        -0.641542         0.769656         0.148467
 C        -2.191352         0.539828         0.248664
 C        -2.229604         2.099122         0.300381
 C        -1.709094         2.576784        -1.132849
 C        -0.567769         1.457100        -1.369060
 O        -2.782509         2.842260         1.447871
 C        -1.749464         2.173571         2.289494
 C        -0.845943         1.988892         0.983193
 H         1.246782        -0.130236         0.270641
 H        -2.721791         0.007269        -0.631021
 H        -2.559246         0.101084         1.236707
 H        -2.531280         2.683864        -1.819125
 H        -1.277844         3.629083        -1.030013
 H        -0.707772         0.658748        -2.124540
 H         0.471195         1.913155        -1.530034
 H        -1.453338         2.883774         3.099329
 H        -2.169278         1.252370         2.795474
 H        -0.155721         2.810304         0.834678
