19
Iteration:  3742charge 0 multiplicity 1
 O         0.259944        -0.289835         0.313659
 C        -0.599179         0.770850         0.145968
 C        -2.206862         0.558458         0.337253
 C        -2.069858         2.112620         0.309554
 C        -1.696449         2.528277        -1.071592
 C        -0.629886         1.437925        -1.272811
 O        -2.888719         2.761801         1.346653
 C        -1.788145         2.268920         2.205506
 C        -0.711367         2.009347         1.145023
 H         1.092065        -0.310972        -0.187722
 H        -2.849185         0.239225        -0.572337
 H        -2.386182         0.033623         1.301846
 H        -2.443778         2.517451        -1.781296
 H        -1.300345         3.572627        -1.144218
 H        -0.810645         0.712327        -2.006604
 H         0.386105         1.929459        -1.565044
 H        -1.576306         2.954856         3.007946
 H        -2.196946         1.383257         2.785777
 H        -0.019445         2.823019         1.149694
