19
Iteration:    77
 O         0.394569        -0.217199         0.314891
 C        -0.636250         0.770480         0.266560
 C        -2.082145         0.447384         0.433310
 C        -2.147501         2.083263         0.280953
 C        -1.904109         2.357234        -1.176185
 C        -0.714786         1.380359        -1.294049
 O        -2.754160         2.854564         1.327395
 C        -1.706775         2.445811         2.231767
 C        -0.779448         2.089158         1.009775
 H         0.146574        -0.896207         0.971347
 H        -2.483779        -0.217303        -0.308760
 H        -2.303486         0.061297         1.433757
 H        -2.729405         2.130162        -1.832283
 H        -1.634747         3.422790        -1.326301
 H        -0.965607         0.537969        -1.904252
 H         0.258897         1.740146        -1.581435
 H        -1.387942         3.332221         2.735300
 H        -1.977297         1.606831         2.853299
 H        -0.092124         2.854553         0.790810
