19
Iteration:  2517
 O         0.351273        -0.277367         0.351021
 C        -0.552350         0.740605         0.164161
 C        -2.203961         0.445237         0.364597
 C        -2.200299         1.990890         0.324494
 C        -1.948249         2.404566        -1.062460
 C        -0.674093         1.427954        -1.155865
 O        -2.755863         2.852488         1.365889
 C        -1.541873         2.518156         2.135245
 C        -0.769140         2.056956         0.988042
 H        -0.076962        -1.138770         0.171595
 H        -2.740738         0.041640        -0.446844
 H        -2.470699        -0.122105         1.174057
 H        -2.641838         2.328192        -1.867474
 H        -1.677508         3.454752        -1.053509
 H        -0.869819         0.603590        -1.844510
 H         0.191051         1.992488        -1.582214
 H        -1.088051         3.428789         2.598982
 H        -1.957272         2.000297         2.947991
 H        -0.088598         2.844408         0.476401
