19
Iteration:  2940charge 0 multiplicity 1
 O         0.214279        -0.333822         0.441657
 C        -0.674715         0.756681         0.086179
 C        -2.182034         0.513922         0.244229
 C        -2.118913         2.095316         0.319252
 C        -1.832111         2.411268        -1.108092
 C        -0.598839         1.466798        -1.315841
 O        -2.799422         2.739541         1.411053
 C        -1.590278         2.420094         2.301241
 C        -0.762678         2.052601         0.979564
 H         1.020153         0.095378         0.813949
 H        -2.910523         0.300687        -0.538627
 H        -2.302834        -0.021451         1.199009
 H        -2.730107         1.955805        -1.653185
 H        -1.726643         3.485757        -1.280825
 H        -0.712475         0.730136        -2.085190
 H         0.345214         2.081290        -1.374584
 H        -1.141958         3.387242         2.654920
 H        -1.852370         1.729197         3.069419
 H        -0.096721         2.801567         0.613052
