19
Iteration:  4336
 O         0.184477        -0.224906         0.408559
 C        -0.704464         0.789711         0.078091
 C        -2.229718         0.660633         0.233613
 C        -2.132909         2.160454         0.317090
 C        -1.690257         2.548100        -1.162391
 C        -0.506911         1.401468        -1.280649
 O        -2.843564         2.623679         1.456189
 C        -1.629675         2.202459         2.285287
 C        -0.765458         2.026289         1.013570
 H         0.837190        -0.252120         1.112760
 H        -2.761145         0.205582        -0.667695
 H        -2.666196         0.283245         1.131400
 H        -2.551544         2.292430        -1.833673
 H        -1.161964         3.367478        -1.447274
 H        -0.811122         0.628928        -2.019066
 H         0.495453         1.777085        -1.283316
 H        -1.463128         3.212361         2.858394
 H        -1.954691         1.394446         2.895748
 H        -0.091065         2.883288         0.740809
