19
Iteration:  2795
 O         0.162437        -0.366133         0.494388
 C        -0.606163         0.774287         0.103706
 C        -2.102086         0.514605         0.329744
 C        -2.163189         2.099966         0.297669
 C        -1.951321         2.380728        -1.181810
 C        -0.595232         1.438074        -1.296692
 O        -2.757790         2.787154         1.456770
 C        -1.587698         2.462763         2.238179
 C        -0.738497         2.074361         0.940571
 H         1.098224        -0.331410         0.242503
 H        -2.727773         0.063784        -0.501800
 H        -2.397088         0.002071         1.229870
 H        -2.798432         2.017868        -1.833020
 H        -1.728795         3.481403        -1.344177
 H        -0.679364         0.770852        -2.184441
 H         0.268919         2.133687        -1.365030
 H        -1.135403         3.290282         2.809416
 H        -1.946986         1.603520         2.845878
 H        -0.082815         2.935721         0.851710
