19
Iteration:  1677charge 0 multiplicity 1
 O         0.275562        -0.208529         0.557508
 C        -0.660201         0.799209         0.156722
 C        -2.225522         0.531130         0.255955
 C        -2.183957         2.024483         0.265845
 C        -1.796719         2.444152        -1.114896
 C        -0.644152         1.358170        -1.299592
 O        -2.800981         2.651416         1.432217
 C        -1.556451         2.503803         2.166873
 C        -0.751060         2.088338         0.988956
 H         0.223001        -0.988664        -0.048165
 H        -2.696271         0.014824        -0.588031
 H        -2.540319         0.180798         1.197366
 H        -2.526796         2.468569        -1.923952
 H        -1.316374         3.354033        -1.090147
 H        -0.757563         0.718228        -2.162116
 H         0.320240         1.825269        -1.402693
 H        -1.175465         3.333734         2.690095
 H        -1.867855         1.882985         2.986115
 H        -0.021857         2.777301         0.617330
