19
Iteration:    20charge 0 multiplicity 1
 O         0.287507        -0.253623         0.281365
 C        -0.694516         0.775152         0.292727
 C        -2.165728         0.417328         0.451157
 C        -2.261660         2.008037         0.174881
 C        -1.844968         2.440559        -1.317592
 C        -0.635465         1.477124        -1.164011
 O        -2.876062         2.623324         1.425092
 C        -1.525016         2.600360         2.163589
 C        -0.685117         2.076553         1.023664
 H         0.576263        -0.409458         1.194604
 H        -2.530944        -0.368218        -0.228139
 H        -2.483908         0.170232         1.449759
 H        -2.601297         2.231293        -2.143591
 H        -1.545434         3.483412        -1.309186
 H        -0.550658         0.631699        -1.942610
 H         0.282031         1.961496        -1.151473
 H        -1.145583         3.653322         2.437745
 H        -1.586378         2.180685         3.187478
 H         0.162206         2.648226         0.840155
