19
Iteration:  4209
 O         0.247645        -0.281573         0.447297
 C        -0.643369         0.765995         0.106101
 C        -2.138498         0.436131         0.224740
 C        -2.110077         2.163759         0.250664
 C        -1.731877         2.631425        -1.115858
 C        -0.669278         1.550121        -1.311242
 O        -2.818252         2.665083         1.319213
 C        -1.676146         2.292246         2.332271
 C        -0.741161         1.964119         1.058050
 H        -0.135208        -0.838619         1.150272
 H        -2.861089        -0.028152        -0.487734
 H        -2.463562         0.147272         1.218770
 H        -2.510588         2.527919        -1.834229
 H        -1.505473         3.769149        -1.148318
 H        -0.675906         0.840243        -2.129587
 H         0.422858         1.897357        -1.394008
 H        -1.316506         3.173438         2.789808
 H        -1.926421         1.662642         3.249272
 H         0.047068         2.708794         0.916851
