19
Iteration:  1948
 O         0.271066        -0.273172         0.463201
 C        -0.674532         0.762436         0.165652
 C        -2.226655         0.510775         0.314356
 C        -2.123723         2.066941         0.282926
 C        -1.893586         2.453753        -1.131605
 C        -0.668155         1.404830        -1.308833
 O        -2.731920         2.714809         1.343445
 C        -1.539755         2.449993         2.252440
 C        -0.737979         2.071126         0.965327
 H         0.043687        -0.555204         1.386478
 H        -2.717559        -0.037832        -0.448684
 H        -2.443884         0.022079         1.272049
 H        -2.668978         2.327200        -1.899075
 H        -1.558438         3.447337        -1.213251
 H        -0.799414         0.616366        -2.049296
 H         0.201997         1.944083        -1.586805
 H        -1.098536         3.444432         2.448882
 H        -1.746568         1.909171         3.107775
 H        -0.044432         2.819972         0.729122
