19
Iteration:  1682charge 0 multiplicity 1
 O         0.266516        -0.239962         0.537169
 C        -0.636234         0.745022         0.155668
 C        -2.214236         0.499883         0.281881
 C        -2.170157         2.048923         0.260718
 C        -1.758410         2.441138        -1.081225
 C        -0.656407         1.369791        -1.315746
 O        -2.805637         2.685824         1.441648
 C        -1.592295         2.504473         2.174157
 C        -0.782006         2.130462         0.930853
 H         0.332830        -0.981146        -0.090094
 H        -2.511699        -0.130976        -0.578023
 H        -2.659730         0.134268         1.262230
 H        -2.588276         2.382167        -1.855595
 H        -1.397372         3.557427        -1.098705
 H        -0.755928         0.682208        -2.203976
 H         0.365607         1.839961        -1.293716
 H        -1.173940         3.438022         2.706249
 H        -1.827976         1.754128         3.024004
 H        -0.024372         2.958110         0.738126
