19
Iteration:  1497charge 0 multiplicity 1
 O         0.340653        -0.122890         0.476526
 C        -0.635963         0.749125         0.211695
 C        -2.255679         0.545090         0.308278
 C        -2.043113         2.128270         0.246069
 C        -1.884880         2.345587        -1.204171
 C        -0.617484         1.397749        -1.291433
 O        -2.708352         2.830782         1.343660
 C        -1.700101         2.306352         2.269655
 C        -0.798265         2.017666         1.080350
 H         0.477966        -0.778160        -0.233234
 H        -2.936036         0.024840        -0.416582
 H        -2.684462         0.319051         1.281827
 H        -2.700964         1.987507        -1.826781
 H        -1.706373         3.389911        -1.572774
 H        -0.886670         0.500986        -1.903895
 H         0.377571         1.793579        -1.611403
 H        -1.269088         3.020504         3.120235
 H        -2.106399         1.417390         2.793933
 H        -0.029134         2.776507         0.945491
