19
Iteration:  1723
 O         0.287021        -0.232064         0.336464
 C        -0.665203         0.724983         0.230149
 C        -2.154983         0.577006         0.443646
 C        -2.062940         2.117952         0.319198
 C        -1.863731         2.300797        -1.129433
 C        -0.625800         1.379738        -1.259562
 O        -2.723745         2.902476         1.260561
 C        -1.820094         2.336249         2.223795
 C        -0.691741         2.011670         1.098319
 H         0.656847        -0.425895        -0.518322
 H        -2.640377         0.109663        -0.416486
 H        -2.591906         0.302774         1.423609
 H        -2.786118         2.001544        -1.720071
 H        -1.641831         3.283507        -1.417985
 H        -0.687862         0.666460        -2.127701
 H         0.189741         2.036626        -1.496576
 H        -1.619054         3.192504         2.776971
 H        -1.962025         1.622983         3.075953
 H         0.107022         2.750750         0.897372
