19
Iteration:  2646charge 0 multiplicity 1
 O         0.305142        -0.266159         0.331317
 C        -0.658530         0.724168         0.238528
 C        -2.152394         0.523424         0.398665
 C        -2.142153         2.080590         0.306396
 C        -1.986892         2.384084        -1.190239
 C        -0.648229         1.413939        -1.207609
 O        -2.763924         2.772840         1.430362
 C        -1.557136         2.488644         2.207592
 C        -0.726182         2.098439         0.969285
 H        -0.101410        -1.016860        -0.124724
 H        -2.551032        -0.146350        -0.488235
 H        -2.511817         0.229552         1.382470
 H        -2.731732         2.130781        -1.987747
 H        -1.521741         3.362184        -1.343129
 H        -0.799899         0.587796        -1.862274
 H         0.418749         1.819583        -1.440352
 H        -0.984459         3.355836         2.718358
 H        -1.932904         1.775266         2.934058
 H        -0.063821         2.885618         0.499587
