19
Iteration:  4357charge 0 multiplicity 1
 O         0.294876        -0.362787         0.399417
 C        -0.751951         0.760703         0.201065
 C        -2.213671         0.622157         0.200398
 C        -2.067846         2.129756         0.298074
 C        -1.788501         2.547245        -1.205458
 C        -0.589104         1.520224        -1.267219
 O        -2.806225         2.729391         1.421434
 C        -1.683897         2.212351         2.215282
 C        -0.753850         2.041379         1.069226
 H         0.845702        -0.190892         1.200140
 H        -2.772274         0.168829        -0.656790
 H        -2.579355         0.252467         1.133767
 H        -2.596469         2.216461        -1.891972
 H        -1.527932         3.522507        -1.255325
 H        -0.681685         0.638539        -1.996127
 H         0.295692         2.143890        -1.364945
 H        -1.382158         3.031755         2.989074
 H        -1.995865         1.325168         2.739904
 H         0.178261         2.661961         0.968282
