19
Iteration:  2012charge 0 multiplicity 1
 O         0.322207        -0.258582         0.201384
 C        -0.736232         0.686583         0.218217
 C        -2.191651         0.500467         0.452530
 C        -2.041156         2.148585         0.361671
 C        -1.857530         2.369007        -1.163939
 C        -0.656131         1.355035        -1.253624
 O        -2.781992         2.896796         1.275363
 C        -1.723420         2.454054         2.251310
 C        -0.677314         2.038244         1.085468
 H         0.613215        -0.577186         1.065006
 H        -2.748423         0.041031        -0.285294
 H        -2.179188        -0.115706         1.355986
 H        -2.768945         2.081330        -1.732462
 H        -1.680024         3.393148        -1.390010
 H        -0.878722         0.596467        -2.024220
 H         0.327000         1.760519        -1.436223
 H        -1.343508         3.353816         2.721129
 H        -2.107957         1.576252         2.824920
 H         0.144452         2.708075         0.983037
