19
Iteration:  3999charge 0 multiplicity 1
 O         0.386841        -0.280023         0.224970
 C        -0.673509         0.677349         0.157139
 C        -2.293994         0.537385         0.235092
 C        -2.083025         2.183554         0.341130
 C        -1.726748         2.496391        -1.126719
 C        -0.573046         1.537163        -1.227866
 O        -2.831213         2.768893         1.335133
 C        -1.797547         2.288822         2.300217
 C        -0.789301         1.933005         1.156191
 H         0.767120        -0.020923         1.084458
 H        -2.841332         0.069593        -0.602164
 H        -2.783277         0.168341         1.158207
 H        -2.552506         2.167240        -1.851451
 H        -1.439746         3.421192        -1.466574
 H        -0.661995         0.737197        -2.045474
 H         0.412197         2.030054        -1.439377
 H        -1.223371         3.156724         2.816405
 H        -1.928469         1.552572         3.134186
 H         0.024920         2.694544         1.358144
