19
Iteration:  2712
 O         0.402160        -0.174493         0.350383
 C        -0.712228         0.719014         0.224020
 C        -2.194716         0.490688         0.328152
 C        -2.181259         2.100630         0.306053
 C        -1.916893         2.385561        -1.152985
 C        -0.753250         1.342878        -1.193077
 O        -2.716154         2.874677         1.367696
 C        -1.564331         2.411350         2.169632
 C        -0.700986         2.001852         0.979530
 H         0.167146        -1.052493         0.719633
 H        -2.603927        -0.053149        -0.580567
 H        -2.509077         0.231299         1.291610
 H        -2.825114         2.452348        -1.740618
 H        -1.556932         3.378499        -0.990518
 H        -0.998991         0.557631        -1.858855
 H         0.235607         1.801679        -1.509669
 H        -1.298285         3.288674         2.844926
 H        -1.846761         1.586143         2.823855
 H        -0.029003         2.835071         0.710674
