19
Iteration:  4371charge 0 multiplicity 1
 O         0.259688        -0.362876         0.350608
 C        -0.548990         0.735461         0.203858
 C        -2.164367         0.487048         0.235898
 C        -2.170039         2.167103         0.250147
 C        -1.860908         2.554790        -1.148863
 C        -0.597869         1.545797        -1.237393
 O        -2.739767         2.859112         1.339184
 C        -1.734447         2.238535         2.310043
 C        -0.782172         1.928458         1.069883
 H         0.694647        -0.280447         1.221353
 H        -2.531716        -0.040676        -0.668553
 H        -2.620360         0.013417         1.128728
 H        -2.700602         2.387012        -1.831622
 H        -1.519450         3.594992        -1.401259
 H        -0.670488         0.955287        -2.097643
 H         0.403474         1.974601        -1.376969
 H        -1.350721         2.996348         3.053442
 H        -2.112155         1.382559         2.904811
 H        -0.186237         2.834539         0.962052
