19
Iteration:  4259charge 0 multiplicity 1
 O         0.308847        -0.264570         0.141410
 C        -0.677732         0.715708         0.176173
 C        -2.195224         0.550935         0.302060
 C        -2.072540         2.206854         0.221678
 C        -1.725075         2.414249        -1.212867
 C        -0.487698         1.442571        -1.170631
 O        -2.810687         2.851435         1.444439
 C        -1.813237         2.318699         2.323294
 C        -0.846653         1.992858         1.134665
 H         0.382461        -0.966821         0.808029
 H        -2.702496        -0.076759        -0.479933
 H        -2.480938         0.085665         1.251566
 H        -2.691675         2.073287        -1.725008
 H        -1.562066         3.443365        -1.383278
 H        -0.451609         0.696236        -2.001069
 H         0.469092         1.925847        -1.122632
 H        -1.426829         3.049504         3.166769
 H        -2.192469         1.523440         2.921954
 H        -0.075873         2.807805         1.025886
