19
Iteration:  4093charge 0 multiplicity 1
 O         0.287017        -0.240249         0.226001
 C        -0.706643         0.768004         0.203514
 C        -2.134193         0.523663         0.231791
 C        -2.169149         2.133933         0.251673
 C        -1.715290         2.515204        -1.176256
 C        -0.514430         1.463995        -1.090666
 O        -2.869173         2.671795         1.407679
 C        -1.633289         2.339331         2.265360
 C        -0.837119         2.002392         1.080616
 H        -0.100335        -0.967308         0.746221
 H        -2.697026         0.038128        -0.574538
 H        -2.676525         0.246988         1.216551
 H        -2.371443         2.439958        -2.086361
 H        -1.391455         3.584848        -1.160773
 H        -0.556002         0.743370        -1.902489
 H         0.492915         1.882074        -1.218241
 H        -1.409256         3.275859         2.799481
 H        -1.949123         1.757845         3.135068
 H        -0.086730         2.778253         0.847539
