19
Iteration:  1257charge 0 multiplicity 1
 O         0.300864        -0.296144         0.397350
 C        -0.629844         0.771815         0.239004
 C        -2.178566         0.526727         0.273006
 C        -2.131445         2.117875         0.256139
 C        -1.846377         2.407641        -1.172168
 C        -0.604679         1.406517        -1.247120
 O        -2.782917         2.815340         1.382938
 C        -1.696385         2.322683         2.228080
 C        -0.778402         2.055229         1.022783
 H         1.017000        -0.035234         0.980838
 H        -2.845810         0.264384        -0.579228
 H        -2.464133         0.160178         1.287855
 H        -2.615124         2.001001        -1.874593
 H        -1.644166         3.427588        -1.499834
 H        -0.920837         0.568487        -1.937888
 H         0.251012         1.985302        -1.588974
 H        -1.371020         3.236564         2.839464
 H        -1.857830         1.558370         2.912476
 H        -0.029091         2.866914         0.916904
