19
Iteration:  1681
 O         0.267612        -0.235272         0.540357
 C        -0.638478         0.757466         0.154617
 C        -2.217917         0.506151         0.275932
 C        -2.173199         2.043331         0.259584
 C        -1.762442         2.440318        -1.082213
 C        -0.655491         1.367485        -1.313960
 O        -2.803723         2.678051         1.441695
 C        -1.584083         2.508366         2.169436
 C        -0.777710         2.124970         0.942517
 H         0.316627        -0.974925        -0.069586
 H        -2.537452        -0.109205        -0.580959
 H        -2.644400         0.146045         1.254052
 H        -2.592664         2.401571        -1.883771
 H        -1.386917         3.510936        -1.094588
 H        -0.752566         0.682613        -2.217463
 H         0.349499         1.828352        -1.298106
 H        -1.177043         3.392401         2.701726
 H        -1.853344         1.775374         3.034023
 H        -0.015445         2.929914         0.718500
