19
Iteration:  2352
 O         0.293379        -0.255606         0.422720
 C        -0.682797         0.728390         0.175116
 C        -2.141453         0.518364         0.427540
 C        -2.074711         2.108658         0.285154
 C        -1.877179         2.348177        -1.112679
 C        -0.722109         1.383522        -1.355454
 O        -2.782352         2.904092         1.338996
 C        -1.635235         2.310450         2.295801
 C        -0.744749         1.995074         0.909969
 H         1.165136        -0.050993         0.014415
 H        -2.700665         0.036944        -0.311081
 H        -2.474170         0.427969         1.454001
 H        -2.714741         2.489838        -1.772883
 H        -1.437297         3.343383        -1.043705
 H        -0.933904         0.618700        -2.067786
 H         0.153394         2.084292        -1.548382
 H        -1.384218         3.175358         2.997927
 H        -2.042189         1.646058         3.034747
 H         0.147876         2.781853         0.688079
