19
Iteration:  2313charge 0 multiplicity 1
 O         0.218172        -0.273374         0.486283
 C        -0.616829         0.746551         0.177012
 C        -2.172741         0.565550         0.247349
 C        -2.128794         2.133180         0.332719
 C        -1.889831         2.344146        -1.216542
 C        -0.657765         1.365126        -1.300839
 O        -2.791548         2.766327         1.484713
 C        -1.544092         2.440953         2.298754
 C        -0.775421         2.133036         0.934186
 H         0.707405        -0.582408        -0.290387
 H        -2.740639        -0.052852        -0.553695
 H        -2.585633         0.032656         1.124446
 H        -2.745057         2.108131        -1.873620
 H        -1.537946         3.406783        -1.413177
 H        -0.571481         0.533923        -2.043422
 H         0.312563         1.846809        -1.511901
 H        -1.165499         3.329714         2.823723
 H        -1.546299         1.509205         2.962940
 H        -0.113793         2.887562         0.719319
