19
Iteration:   355charge 0 multiplicity 1
 O         0.434768        -0.141519         0.424692
 C        -0.644387         0.752495         0.192550
 C        -2.158140         0.470611         0.393010
 C        -2.113940         2.157472         0.317673
 C        -1.979830         2.254806        -1.238675
 C        -0.793790         1.178995        -1.325466
 O        -2.732115         2.915146         1.423311
 C        -1.666058         2.514287         2.273132
 C        -0.672231         2.093675         1.005260
 H         0.552444        -0.684905        -0.387685
 H        -2.710171        -0.208805        -0.371981
 H        -2.617238         0.154260         1.344784
 H        -2.947139         1.987268        -1.792766
 H        -1.664336         3.190053        -1.623854
 H        -1.186887         0.275589        -1.853499
 H         0.147922         1.401334        -1.813320
 H        -1.228047         3.379256         2.807642
 H        -1.968067         1.847607         3.068591
 H         0.148111         2.871360         0.792642
