19
Iteration:  1153charge 0 multiplicity 1
 O         0.256709        -0.310701         0.283744
 C        -0.685413         0.801417         0.199298
 C        -2.107157         0.539956         0.464542
 C        -2.158670         2.127484         0.283366
 C        -1.822095         2.348261        -1.293237
 C        -0.554269         1.471924        -1.154719
 O        -2.900901         2.691891         1.375977
 C        -1.604283         2.457907         2.190326
 C        -0.749926         2.140313         1.043326
 H        -0.189783        -0.889651         0.911795
 H        -2.640371        -0.011267        -0.304186
 H        -2.250936        -0.014860         1.391589
 H        -2.545637         1.959691        -1.983589
 H        -1.444563         3.400645        -1.484347
 H        -0.334495         0.814968        -1.933297
 H         0.359204         2.114466        -1.249861
 H        -1.304085         3.246668         2.787090
 H        -1.866361         1.519183         2.779825
 H         0.119536         2.762413         0.868857
