19
Iteration:  2610
 O         0.416718        -0.125427         0.428952
 C        -0.688231         0.673128         0.164727
 C        -2.201914         0.507162         0.435618
 C        -2.101987         2.061400         0.311264
 C        -1.909711         2.419928        -1.084507
 C        -0.749952         1.297698        -1.379218
 O        -2.757909         2.940807         1.370241
 C        -1.625012         2.410541         2.223845
 C        -0.716818         1.925596         0.970888
 H         0.737852        -0.737092        -0.240800
 H        -2.865698        -0.101977        -0.321337
 H        -2.646072         0.210248         1.490898
 H        -2.676288         2.373132        -1.928419
 H        -1.531519         3.494321        -1.151637
 H        -1.263769         0.620594        -2.102265
 H         0.136520         1.756546        -1.858361
 H        -0.933567         3.049974         2.805858
 H        -2.106533         1.668146         2.973076
 H        -0.042475         2.728374         0.978817
