19
Iteration:  2823
 O         0.303014        -0.195756         0.489585
 C        -0.695790         0.745166         0.162399
 C        -2.252626         0.508041         0.338462
 C        -2.185551         2.095730         0.268898
 C        -1.820999         2.423483        -1.221284
 C        -0.632128         1.410505        -1.270897
 O        -2.794446         2.784710         1.413800
 C        -1.483602         2.400932         2.266834
 C        -0.766999         1.990682         0.973527
 H         0.595117        -0.666605        -0.305760
 H        -2.868977         0.049329        -0.430488
 H        -2.631501         0.208499         1.396237
 H        -2.631819         2.088356        -1.848603
 H        -1.548768         3.452133        -1.340567
 H        -0.844070         0.644978        -2.066084
 H         0.272535         1.978740        -1.361538
 H        -1.061528         3.227883         2.891263
 H        -1.867336         1.472104         2.727801
 H        -0.078448         2.875378         0.815365
