19
Iteration:   822charge 0 multiplicity 1
 O         0.414904        -0.070555         0.531126
 C        -0.678792         0.718218         0.135194
 C        -2.189699         0.524125         0.372966
 C        -2.064884         2.197656         0.307335
 C        -1.880541         2.406793        -1.227398
 C        -0.755129         1.230652        -1.328356
 O        -2.780992         2.796923         1.346360
 C        -1.639061         2.357234         2.254366
 C        -0.765215         2.053240         0.964039
 H         0.309938        -1.048043         0.558987
 H        -2.722928        -0.040352        -0.347085
 H        -2.320795         0.137619         1.391962
 H        -2.890114         2.087750        -1.714154
 H        -1.593990         3.405750        -1.501691
 H        -0.778109         0.401309        -2.090325
 H         0.211819         1.808883        -1.617866
 H        -1.403669         3.221976         2.962703
 H        -2.080520         1.578171         2.814032
 H         0.230062         2.628690         0.906330
