19
Iteration:   219charge 0 multiplicity 1
 O         0.467552        -0.236395         0.339504
 C        -0.637489         0.734522         0.167337
 C        -2.169634         0.465808         0.435116
 C        -2.158097         2.093658         0.336868
 C        -1.977699         2.267313        -1.126212
 C        -0.765494         1.298643        -1.288939
 O        -2.699218         2.981141         1.273727
 C        -1.650573         2.430917         2.240684
 C        -0.782183         2.085986         0.984617
 H         0.901538        -0.097904         1.193286
 H        -2.701073        -0.100657        -0.253095
 H        -2.576686         0.029401         1.370505
 H        -2.835797         1.926184        -1.657829
 H        -1.751786         3.374353        -1.327679
 H        -0.976861         0.608078        -2.101060
 H         0.155159         1.869367        -1.486029
 H        -1.296165         3.189188         2.898416
 H        -2.049707         1.631179         2.845769
 H        -0.040566         2.784378         0.842118
