19
Iteration:  4867
 O         0.205505        -0.336572         0.392066
 C        -0.640682         0.783692         0.145456
 C        -2.156363         0.582188         0.182064
 C        -2.136067         2.099819         0.274252
 C        -1.673569         2.547214        -1.222084
 C        -0.453726         1.519310        -1.229134
 O        -2.930945         2.738498         1.462668
 C        -1.730733         2.195265         2.328261
 C        -0.815018         2.038402         1.018141
 H         0.933024         0.147111         0.870309
 H        -2.676701         0.225351        -0.805365
 H        -2.610124         0.147333         1.096012
 H        -2.397333         2.348134        -2.059617
 H        -1.436451         3.643886        -1.175178
 H        -0.575143         0.615865        -1.992309
 H         0.522078         2.008604        -1.381266
 H        -1.407960         2.813758         3.143021
 H        -1.955002         1.229096         2.880063
 H        -0.105719         2.840263         0.924237
