19
Iteration:  2482charge 0 multiplicity 1
 O         0.361240        -0.165278         0.332946
 C        -0.639792         0.766894         0.128514
 C        -2.166837         0.566969         0.512254
 C        -2.029456         2.172695         0.257636
 C        -1.881826         2.436458        -1.295701
 C        -0.783963         1.277188        -1.322777
 O        -2.774070         2.773393         1.447490
 C        -1.701168         2.357075         2.249165
 C        -0.709638         2.038156         1.035817
 H         0.124047        -1.088349         0.546608
 H        -2.857866         0.067412        -0.159762
 H        -2.277939         0.455738         1.568140
 H        -2.755071         2.227184        -1.925016
 H        -1.269652         3.293447        -1.481388
 H        -1.055373         0.363183        -1.812210
 H         0.203839         1.668272        -1.771037
 H        -1.304460         3.227067         2.840497
 H        -2.010293         1.521626         2.877544
 H         0.183811         2.803755         1.186189
