19
Iteration:   495charge 0 multiplicity 1
 O         0.390311        -0.309555         0.395485
 C        -0.570581         0.749145         0.133128
 C        -2.200766         0.465855         0.407726
 C        -2.100067         2.086508         0.361053
 C        -1.942825         2.319363        -1.097438
 C        -0.782503         1.228731        -1.354327
 O        -2.777640         2.856265         1.332987
 C        -1.617718         2.612776         2.233291
 C        -0.736197         2.089117         0.947544
 H         0.802488        -0.011479         1.234369
 H        -2.674123        -0.033854        -0.493564
 H        -2.556528         0.167738         1.398915
 H        -2.996874         2.132461        -1.620344
 H        -1.488353         3.246612        -1.356858
 H        -1.015255         0.364230        -2.012532
 H         0.131762         1.728955        -1.801795
 H        -1.143072         3.583163         2.692786
 H        -1.817864         2.068507         3.161399
 H        -0.213382         3.029609         0.704715
