19
Iteration:  2501charge 0 multiplicity 1
 O         0.402076        -0.231528         0.309471
 C        -0.692579         0.716303         0.204597
 C        -2.146284         0.487352         0.405755
 C        -2.127718         2.089219         0.350396
 C        -1.833060         2.415919        -1.116006
 C        -0.739014         1.326038        -1.324022
 O        -2.803746         2.831160         1.342922
 C        -1.627101         2.492438         2.296005
 C        -0.743390         2.070513         0.975524
 H        -0.071927        -1.092222         0.289769
 H        -2.705241        -0.100472        -0.412855
 H        -2.448122         0.238685         1.495499
 H        -2.744657         2.220327        -1.757539
 H        -1.496168         3.470808        -1.243728
 H        -1.050982         0.593785        -2.098835
 H         0.285429         1.655891        -1.552604
 H        -1.264272         3.412430         2.727755
 H        -1.671412         1.609450         2.978915
 H        -0.070882         2.875635         0.766646
