19
Iteration:  4363charge 0 multiplicity 1
 O         0.295500        -0.369169         0.397291
 C        -0.689219         0.754922         0.203731
 C        -2.185437         0.563299         0.207034
 C        -2.132498         2.140330         0.269679
 C        -1.836616         2.548980        -1.185570
 C        -0.594327         1.557067        -1.276119
 O        -2.771978         2.785745         1.386028
 C        -1.673546         2.220266         2.259631
 C        -0.771758         1.989433         1.101889
 H         0.885261        -0.410152         1.174453
 H        -2.651534         0.111024        -0.639732
 H        -2.605161         0.183324         1.175628
 H        -2.697794         2.342530        -1.825287
 H        -1.402183         3.648914        -1.485637
 H        -0.702050         0.733540        -1.974967
 H         0.405440         2.045908        -1.301512
 H        -1.449506         3.007678         2.874240
 H        -2.125016         1.293324         2.726157
 H        -0.014993         2.730591         0.917317
