19
Iteration:  3054charge 0 multiplicity 1
 O         0.257427        -0.293376         0.410533
 C        -0.646815         0.773848         0.079813
 C        -2.097476         0.604305         0.378210
 C        -2.129681         2.090728         0.330945
 C        -1.866490         2.425930        -1.127870
 C        -0.572048         1.533015        -1.291300
 O        -2.832318         2.752568         1.338689
 C        -1.664447         2.254118         2.268515
 C        -0.684238         2.045316         1.043576
 H        -0.223466        -1.122790         0.192882
 H        -2.790813         0.030270        -0.346382
 H        -2.337715         0.256381         1.347305
 H        -2.646704         2.209873        -1.800881
 H        -1.555644         3.502725        -1.099301
 H        -0.806166         0.843446        -2.142713
 H         0.238254         2.162486        -1.542433
 H        -1.345708         3.248732         2.552955
 H        -1.838253         1.471107         3.075310
 H        -0.137007         2.968488         0.734330
