19
Iteration:  4446charge 0 multiplicity 1
 O         0.259386        -0.288255         0.366331
 C        -0.649936         0.790381         0.148920
 C        -2.180113         0.547793         0.221785
 C        -2.091568         2.082058         0.261557
 C        -1.710837         2.521240        -1.118789
 C        -0.573871         1.488498        -1.320794
 O        -2.892428         2.684664         1.426217
 C        -1.688698         2.326266         2.313822
 C        -0.740069         2.087880         1.047023
 H        -0.230875        -0.984571         0.826755
 H        -2.634045         0.197287        -0.721075
 H        -2.664811         0.075405         1.103074
 H        -2.532544         2.350754        -1.851705
 H        -1.349755         3.524338        -1.092294
 H        -0.753966         0.552505        -1.904493
 H         0.492235         1.755607        -1.510157
 H        -1.268752         3.221011         2.909160
 H        -1.964897         1.632001         3.085642
 H         0.076214         2.850496         0.968051
