19
Iteration:  1862charge 0 multiplicity 1
 O         0.359852        -0.332282         0.319234
 C        -0.683448         0.650767         0.170234
 C        -2.197024         0.529298         0.451894
 C        -2.033625         2.062253         0.236568
 C        -1.940539         2.396899        -1.164562
 C        -0.685560         1.427206        -1.249444
 O        -2.691263         2.966598         1.232496
 C        -1.726130         2.421087         2.328118
 C        -0.765472         1.972462         1.059613
 H         1.033006         0.144145         0.852643
 H        -2.777340        -0.126758        -0.147312
 H        -2.352281         0.294723         1.519648
 H        -2.759942         2.055470        -1.838475
 H        -1.773102         3.410068        -1.313042
 H        -0.642607         0.798643        -2.142654
 H         0.162743         2.076998        -1.417567
 H        -1.451974         2.951240         3.208471
 H        -2.280246         1.699778         2.778472
 H        -0.050167         2.671624         0.811987
