19
Iteration:  2544charge 0 multiplicity 1
 O         0.264661        -0.260292         0.465091
 C        -0.632986         0.658167         0.091337
 C        -2.170839         0.452895         0.415493
 C        -2.048668         2.088805         0.283439
 C        -1.948746         2.376782        -1.227616
 C        -0.687425         1.495848        -1.292648
 O        -2.786600         2.766296         1.419816
 C        -1.514415         2.517688         2.259941
 C        -0.749512         2.080816         1.006228
 H         0.236862        -1.041326        -0.140925
 H        -2.879379        -0.027198        -0.375362
 H        -2.523548         0.103413         1.500363
 H        -2.794554         1.956262        -1.853567
 H        -1.892824         3.468227        -1.493509
 H        -0.668171         0.822443        -2.189076
 H         0.227073         2.135381        -1.386821
 H        -1.080542         3.471442         2.593470
 H        -1.854330         1.898398         3.185479
 H         0.034767         2.710991         0.713591
