19
Iteration:  2067charge 0 multiplicity 1
 O         0.215122        -0.154028         0.455297
 C        -0.704139         0.744525         0.182886
 C        -2.192093         0.589827         0.313021
 C        -2.122555         2.123158         0.305926
 C        -1.805045         2.436117        -1.182989
 C        -0.669432         1.354978        -1.263189
 O        -2.823727         2.665864         1.421951
 C        -1.492602         2.371420         2.159538
 C        -0.699058         2.023784         0.917194
 H        -0.062030        -0.654545         1.229162
 H        -2.662253        -0.140786        -0.215684
 H        -2.359584         0.468503         1.388934
 H        -2.683862         2.143594        -1.797952
 H        -1.478198         3.396621        -1.478167
 H        -0.774525         0.675936        -2.121182
 H         0.231166         1.921414        -1.355053
 H        -1.211947         3.360560         2.531635
 H        -1.538727         1.739260         3.080209
 H        -0.085355         2.818921         0.650066
