19
Iteration:  4490charge 0 multiplicity 1
 O         0.290637        -0.265467         0.403721
 C        -0.694708         0.729574         0.223407
 C        -2.232589         0.537624         0.242320
 C        -2.126037         2.201245         0.276085
 C        -1.813938         2.525926        -1.187584
 C        -0.557063         1.529172        -1.233730
 O        -2.766765         2.759195         1.390430
 C        -1.663044         2.173426         2.208100
 C        -0.796749         1.988196         1.043588
 H         0.428440        -0.624289         1.295353
 H        -2.643468         0.076189        -0.646287
 H        -2.612730         0.073748         1.207093
 H        -2.524014         2.275536        -2.049358
 H        -1.535928         3.546851        -1.326203
 H        -0.591116         0.993245        -2.236295
 H         0.396753         2.168948        -1.357115
 H        -1.416309         2.991903         2.956952
 H        -1.896357         1.306983         2.807083
 H         0.040304         2.715021         0.913909
