19
Iteration:  1679charge 0 multiplicity 1
 O         0.270983        -0.223620         0.548151
 C        -0.646927         0.780667         0.154363
 C        -2.223417         0.518378         0.265878
 C        -2.178972         2.032867         0.260705
 C        -1.775659         2.443021        -1.093155
 C        -0.650470         1.362787        -1.308307
 O        -2.801340         2.663725         1.438869
 C        -1.568280         2.511378         2.165922
 C        -0.765839         2.110133         0.966429
 H         0.275857        -0.974814        -0.047989
 H        -2.606784        -0.052697        -0.583959
 H        -2.595621         0.170866         1.219218
 H        -2.573885         2.438447        -1.918177
 H        -1.367195         3.398541        -1.090144
 H        -0.750380         0.697970        -2.209552
 H         0.318557         1.812869        -1.333665
 H        -1.188255         3.316030         2.684715
 H        -1.878344         1.832162         3.022661
 H        -0.016089         2.853354         0.671300
