19
Iteration:   526charge 0 multiplicity 1
 O         0.288167        -0.215581         0.516572
 C        -0.753930         0.816518         0.202983
 C        -2.266857         0.495780         0.477039
 C        -2.186595         2.078298         0.214074
 C        -1.972473         2.330411        -1.273420
 C        -0.731294         1.357696        -1.264291
 O        -2.746406         2.689909         1.405826
 C        -1.399880         2.477719         2.128608
 C        -0.626373         2.087262         0.908916
 H         0.912018         0.114270         1.172620
 H        -2.711535        -0.173275        -0.233516
 H        -2.690145         0.391646         1.450944
 H        -2.842587         2.053804        -1.933347
 H        -1.555341         3.277470        -1.574837
 H        -0.714929         0.509524        -1.963918
 H         0.178673         2.045657        -1.354926
 H        -1.153132         3.562192         2.526012
 H        -1.531062         1.714918         2.930684
 H         0.104454         2.830140         0.634047
