19
Iteration:   492charge 0 multiplicity 1
 O         0.386611        -0.315810         0.364863
 C        -0.547052         0.734466         0.134010
 C        -2.216504         0.464831         0.414333
 C        -2.116326         2.069701         0.374768
 C        -1.936874         2.290539        -1.100780
 C        -0.780343         1.222848        -1.346613
 O        -2.784450         2.879279         1.318231
 C        -1.618219         2.618009         2.243662
 C        -0.735323         2.138876         0.967119
 H         0.718204         0.001336         1.207265
 H        -2.639851        -0.097317        -0.355446
 H        -2.488239         0.089934         1.386446
 H        -2.887887         2.240273        -1.603777
 H        -1.410732         3.261095        -1.322418
 H        -0.989220         0.395170        -2.022622
 H         0.119050         1.736208        -1.823895
 H        -1.154445         3.559291         2.721787
 H        -1.830851         1.925462         3.115795
 H        -0.240581         3.044134         0.662665
