19
Iteration:  4696charge 0 multiplicity 1
 O         0.304046        -0.308819         0.332606
 C        -0.697122         0.702680         0.219795
 C        -2.188796         0.618721         0.278167
 C        -2.106394         2.153634         0.305812
 C        -1.783266         2.479534        -1.195029
 C        -0.485243         1.500509        -1.200386
 O        -2.812693         2.711152         1.384235
 C        -1.784564         2.313924         2.278861
 C        -0.803409         1.980863         1.088340
 H         0.391014        -0.656336        -0.572220
 H        -2.674712         0.136252        -0.552601
 H        -2.458148         0.196623         1.327023
 H        -2.443449         2.344978        -2.090213
 H        -1.395306         3.484643        -1.332601
 H        -0.294117         0.859574        -2.093915
 H         0.288609         2.237763        -1.087500
 H        -1.551562         3.315876         2.866566
 H        -2.153212         1.505845         2.944681
 H         0.031603         2.778659         0.959666
