19
Iteration:  2431
 O         0.284878        -0.272174         0.397266
 C        -0.686706         0.747142         0.135092
 C        -2.169703         0.474891         0.369123
 C        -2.222242         2.058800         0.289491
 C        -1.915758         2.411851        -1.157905
 C        -0.663836         1.471180        -1.293477
 O        -2.722119         2.837411         1.406658
 C        -1.483406         2.434994         2.278477
 C        -0.780610         1.980589         0.915645
 H         0.289028        -0.668050         1.294943
 H        -2.558359        -0.186733        -0.418601
 H        -2.357199         0.044909         1.319814
 H        -2.599201         2.009735        -1.894922
 H        -1.737442         3.506010        -1.335021
 H        -0.661990         0.841312        -2.186135
 H         0.271884         2.041857        -1.401350
 H        -1.166619         3.428351         2.701458
 H        -1.913017         1.769805         3.030812
 H        -0.084388         2.861572         0.724881
