19
Iteration:   213charge 0 multiplicity 1
 O         0.446564        -0.272192         0.279080
 C        -0.625021         0.779623         0.172747
 C        -2.186120         0.513432         0.374303
 C        -2.162744         2.070055         0.364367
 C        -2.003446         2.218038        -1.056531
 C        -0.707759         1.251971        -1.245596
 O        -2.702082         2.962268         1.268293
 C        -1.648659         2.494553         2.254758
 C        -0.802390         2.100239         1.014580
 H         0.974405         0.004898         1.042765
 H        -2.692369         0.034320        -0.572741
 H        -2.462590         0.097602         1.339778
 H        -2.900459         1.913510        -1.673282
 H        -1.771897         3.204390        -1.360599
 H        -0.816554         0.490020        -2.041757
 H         0.196902         1.825448        -1.547491
 H        -1.286960         3.323005         2.928336
 H        -2.084419         1.614010         2.780432
 H        -0.009350         2.965650         0.935293
