19
Iteration:  2565
 O         0.282777        -0.253597         0.456787
 C        -0.648761         0.807543         0.171705
 C        -2.156149         0.669820         0.393268
 C        -2.153191         2.115057         0.282008
 C        -1.939510         2.323205        -1.164893
 C        -0.671437         1.353881        -1.328564
 O        -2.774637         2.771178         1.463806
 C        -1.566297         2.363617         2.193765
 C        -0.699593         2.106445         0.953699
 H         0.403013        -0.762576        -0.362291
 H        -2.740994         0.016545        -0.316459
 H        -2.462845         0.365114         1.465154
 H        -2.816291         1.992217        -1.769847
 H        -1.673293         3.317581        -1.593212
 H        -0.764081         0.469682        -2.018944
 H         0.316979         1.701999        -1.414209
 H        -1.451732         3.260995         2.754248
 H        -1.661696         1.481845         2.926947
 H         0.160073         2.653797         0.735071
