19
Iteration:  4156charge 0 multiplicity 1
 O         0.263434        -0.236789         0.251278
 C        -0.680358         0.741122         0.214777
 C        -2.182303         0.508515         0.283173
 C        -2.105232         2.184101         0.262373
 C        -1.732357         2.457475        -1.209157
 C        -0.580251         1.519117        -1.247119
 O        -2.808188         2.791771         1.384733
 C        -1.773964         2.243046         2.293971
 C        -0.767778         1.967805         1.153975
 H         0.660700        -0.392212         1.125207
 H        -2.644588         0.205085        -0.666220
 H        -2.669576         0.272838         1.246428
 H        -2.458845         2.296513        -1.929263
 H        -1.383236         3.528930        -1.284007
 H        -0.647929         0.657624        -1.957736
 H         0.540041         1.938480        -1.381594
 H        -1.365521         2.913658         3.003323
 H        -2.057200         1.171884         2.699190
 H         0.023604         2.721439         1.077403
