19
Iteration:  4120charge 0 multiplicity 1
 O         0.322129        -0.346955         0.215306
 C        -0.617614         0.724191         0.147740
 C        -2.122083         0.476394         0.258824
 C        -2.058710         2.069051         0.352298
 C        -1.759425         2.453481        -1.049796
 C        -0.564707         1.546952        -1.229715
 O        -2.832691         2.866316         1.294451
 C        -1.785496         2.350662         2.293869
 C        -0.804128         2.011041         1.130158
 H         0.104668        -0.856914         1.020592
 H        -2.808293         0.203188        -0.565670
 H        -2.599082         0.050057         1.090719
 H        -2.569235         2.277857        -1.806090
 H        -1.565367         3.536324        -1.035393
 H        -0.695534         0.924523        -2.140748
 H         0.351964         2.163871        -1.341392
 H        -1.738115         3.099441         3.114032
 H        -2.256270         1.500963         2.809789
 H        -0.081739         2.854162         0.987057
