19
Iteration:  4943charge 0 multiplicity 1
 O         0.237304        -0.333377         0.229392
 C        -0.644986         0.746970         0.211842
 C        -2.145697         0.518139         0.190321
 C        -2.176646         2.104062         0.307948
 C        -1.734076         2.509456        -1.192893
 C        -0.412796         1.481428        -1.020924
 O        -2.905087         2.767454         1.370491
 C        -1.768762         2.337161         2.306045
 C        -0.837543         2.037792         1.101638
 H         1.056713        -0.215241        -0.281604
 H        -2.511651         0.160676        -0.847481
 H        -2.627104        -0.119576         1.030095
 H        -2.435601         2.118687        -1.980826
 H        -1.292496         3.516009        -1.264519
 H        -0.345519         1.150128        -2.078986
 H         0.538052         1.976813        -0.983672
 H        -1.520773         3.063528         3.050686
 H        -1.963433         1.390081         2.920772
 H        -0.160139         2.835921         1.130696
