19
Iteration:  1888charge 0 multiplicity 1
 O         0.300585        -0.320716         0.309225
 C        -0.660355         0.785726         0.222604
 C        -2.197097         0.492514         0.364803
 C        -2.083495         2.129556         0.274781
 C        -1.870782         2.341686        -1.143962
 C        -0.655110         1.360626        -1.247062
 O        -2.788868         2.962864         1.368097
 C        -1.696566         2.374918         2.183705
 C        -0.704555         2.018573         1.047876
 H         0.970947        -0.004224         0.949459
 H        -2.613570        -0.062336        -0.531841
 H        -2.412983         0.070177         1.363057
 H        -2.626389         1.905306        -1.816774
 H        -1.625758         3.437342        -1.318799
 H        -1.018670         0.499537        -1.857353
 H         0.236885         1.852103        -1.725085
 H        -1.243046         3.166058         2.852385
 H        -2.175253         1.689885         3.038826
 H         0.153682         2.777905         0.909970
