19
Iteration:  2628
 O         0.426281        -0.183327         0.392021
 C        -0.692630         0.689986         0.136036
 C        -2.254865         0.504197         0.423286
 C        -2.135044         2.090724         0.331853
 C        -1.854224         2.425270        -1.131493
 C        -0.786068         1.357899        -1.293080
 O        -2.730854         2.831832         1.320875
 C        -1.578725         2.471816         2.238865
 C        -0.740235         1.965453         1.020455
 H         0.352290        -0.972260        -0.163885
 H        -2.956811         0.062541        -0.177670
 H        -2.439356         0.089839         1.399728
 H        -2.799275         2.211299        -1.578739
 H        -1.702654         3.490176        -1.250631
 H        -0.832440         0.648634        -2.174884
 H         0.142532         1.899599        -1.423023
 H        -1.433485         3.459828         2.587543
 H        -1.709655         1.739768         3.035806
 H         0.179990         2.580603         0.768751
