19
Iteration:  4769
 O         0.387241        -0.146084         0.389760
 C        -0.697288         0.742720         0.235110
 C        -2.268262         0.628283         0.250097
 C        -2.069806         2.129729         0.233124
 C        -1.623153         2.588926        -1.163053
 C        -0.572980         1.431120        -1.229179
 O        -2.909518         2.709489         1.449866
 C        -1.762314         2.156226         2.205942
 C        -0.796911         1.972453         1.000606
 H         0.158750        -1.101932         0.481241
 H        -2.516365         0.244644        -0.754590
 H        -2.733259         0.313292         1.128072
 H        -2.507037         2.663065        -1.785252
 H        -1.176425         3.578463        -1.294137
 H        -0.897505         0.548473        -1.888148
 H         0.437790         1.725674        -1.285159
 H        -1.417447         2.891647         2.871812
 H        -2.086659         1.318093         2.846933
 H         0.003142         2.662191         0.993668
