19
Iteration:   311charge 0 multiplicity 1
 O         0.356899        -0.266137         0.341072
 C        -0.663292         0.710695         0.161856
 C        -2.157218         0.501769         0.625143
 C        -2.165046         1.999828         0.336613
 C        -1.973803         2.276610        -1.103120
 C        -0.634780         1.474129        -1.275887
 O        -2.778375         2.839537         1.289651
 C        -1.605191         2.587130         2.052549
 C        -0.677375         2.052404         0.976137
 H        -0.145441        -1.096931         0.187996
 H        -3.000290        -0.131205         0.154187
 H        -2.117358         0.075857         1.620313
 H        -2.834300         1.779330        -1.673319
 H        -1.982912         3.314706        -1.265894
 H        -0.531865         0.826912        -2.164243
 H         0.147336         2.243321        -1.295494
 H        -1.268825         3.506178         2.579782
 H        -1.722169         1.905202         2.864271
 H         0.145426         2.820341         0.755275
