19
Iteration:  4463
 O         0.199896        -0.307237         0.491226
 C        -0.588915         0.775191         0.106901
 C        -2.119813         0.545587         0.181510
 C        -2.146497         2.074518         0.312312
 C        -1.805960         2.557541        -1.053754
 C        -0.563211         1.499755        -1.296748
 O        -2.764169         2.718933         1.399661
 C        -1.667492         2.301156         2.222717
 C        -0.815989         2.012465         1.008103
 H        -0.255458        -0.814369         1.183527
 H        -2.590134        -0.003795        -0.663573
 H        -2.270912         0.025892         1.104399
 H        -2.497513         2.573148        -1.933634
 H        -1.482901         3.661171        -1.133952
 H        -0.627264         0.933996        -2.275758
 H         0.232351         2.147486        -1.598323
 H        -1.416769         3.086387         2.921301
 H        -1.903298         1.356588         2.803301
 H        -0.243586         2.893965         0.708409
