19
Iteration:   535charge 0 multiplicity 1
 O         0.229139        -0.231042         0.501783
 C        -0.693881         0.792465         0.211859
 C        -2.217367         0.529909         0.474749
 C        -2.187225         2.053714         0.273890
 C        -1.931357         2.290754        -1.224164
 C        -0.688067         1.305273        -1.290508
 O        -2.702745         2.718528         1.425560
 C        -1.469285         2.443500         2.160356
 C        -0.732329         2.219313         0.802009
 H         0.925909         0.073399         1.082985
 H        -2.786848         0.014388        -0.231414
 H        -2.615062         0.288232         1.455817
 H        -2.689736         1.999063        -1.869077
 H        -1.770089         3.398091        -1.464137
 H        -0.507004         0.598639        -2.088421
 H         0.239850         1.948173        -1.317237
 H        -1.071810         3.375483         2.649049
 H        -1.623593         1.643617         2.920647
 H        -0.074442         2.882731         0.266890
