19
Iteration:  2876
 O         0.331094        -0.303672         0.249691
 C        -0.598245         0.751166         0.158368
 C        -2.090077         0.473494         0.395971
 C        -2.123649         2.068061         0.336654
 C        -1.802371         2.442843        -1.181357
 C        -0.695105         1.358815        -1.392347
 O        -2.751113         2.873003         1.384125
 C        -1.832915         2.418971         2.339340
 C        -0.732796         2.072137         1.051700
 H         0.098823        -0.693857         1.110095
 H        -2.758711        -0.018370        -0.302073
 H        -2.062709         0.115690         1.506526
 H        -2.731893         2.443654        -1.843048
 H        -1.435698         3.475020        -1.243415
 H        -0.902843         0.516004        -2.051849
 H         0.232454         1.819486        -1.781302
 H        -1.543857         3.300160         3.057326
 H        -2.171245         1.605531         3.054782
 H        -0.076277         2.948492         0.980846
