19
Iteration:  1580charge 0 multiplicity 1
 O         0.452586        -0.332774         0.394971
 C        -0.646126         0.655804         0.264500
 C        -2.261698         0.586019         0.335111
 C        -2.169323         2.125612         0.321214
 C        -1.878717         2.425302        -1.144052
 C        -0.594064         1.444711        -1.245250
 O        -2.830291         2.788509         1.309145
 C        -1.670108         2.487890         2.229941
 C        -0.737271         1.986574         1.045708
 H         0.630542        -0.534092        -0.547946
 H        -2.854199         0.152152        -0.485300
 H        -2.618205         0.286972         1.291918
 H        -2.612681         1.883882        -1.911049
 H        -1.824796         3.443306        -1.373959
 H        -0.857512         0.695585        -2.046197
 H         0.406539         1.804851        -1.382523
 H        -1.258366         3.396384         2.573368
 H        -2.041310         1.881730         3.155033
 H        -0.014735         2.797691         0.920837
