19
Iteration:  3836charge 0 multiplicity 1
 O         0.237687        -0.478899         0.282377
 C        -0.589127         0.754033         0.199513
 C        -2.102094         0.592622         0.168558
 C        -2.110531         2.144080         0.298072
 C        -1.804316         2.542588        -1.120660
 C        -0.541469         1.499581        -1.228922
 O        -2.920743         2.687591         1.422065
 C        -1.708714         2.434690         2.315598
 C        -0.795526         2.029769         1.079210
 H         1.078264        -0.451656         0.767107
 H        -2.531026         0.160991        -0.711451
 H        -2.654868         0.249707         1.072611
 H        -2.494449         2.272893        -2.028510
 H        -1.669543         3.655001        -1.208453
 H        -0.879437         0.821561        -2.143040
 H         0.500063         1.833696        -1.460855
 H        -1.399298         3.318707         2.929984
 H        -1.801198         1.607021         3.033695
 H         0.012987         2.860486         1.079502
