19
Iteration:  4529
 O         0.373619        -0.279167         0.133089
 C        -0.641420         0.713447         0.221742
 C        -2.147741         0.508732         0.314064
 C        -2.108687         2.149250         0.299597
 C        -1.644701         2.541131        -1.086514
 C        -0.637577         1.415146        -1.273450
 O        -2.866894         2.844431         1.357378
 C        -1.824459         2.347999         2.323944
 C        -0.834087         1.969334         1.158335
 H         0.445964        -0.693836         1.016856
 H        -2.518928        -0.056751        -0.588059
 H        -2.541076        -0.059702         1.114226
 H        -2.542173         2.445486        -1.772617
 H        -1.328560         3.547103        -1.461835
 H        -0.720170         0.537609        -1.958700
 H         0.294432         1.857014        -1.489336
 H        -1.370946         3.115898         2.975145
 H        -2.325287         1.454487         2.734926
 H        -0.017146         2.719431         1.220969
