19
Iteration:   966
 O         0.469710        -0.105540         0.490513
 C        -0.673297         0.738659         0.176838
 C        -2.205456         0.547373         0.306178
 C        -2.061447         2.220756         0.302817
 C        -1.805750         2.421995        -1.167130
 C        -0.783709         1.240797        -1.220740
 O        -2.861723         2.804328         1.302564
 C        -1.698974         2.288439         2.235665
 C        -0.740155         2.038552         1.039275
 H         0.655581        -0.554285        -0.356706
 H        -2.665700        -0.015672        -0.501550
 H        -2.551351         0.141186         1.226400
 H        -2.729651         2.204389        -1.723735
 H        -1.362250         3.460049        -1.323663
 H        -1.138832         0.467168        -1.871633
 H         0.164707         1.478494        -1.853551
 H        -1.356048         3.207096         2.692664
 H        -1.916156         1.484119         2.929852
 H         0.218901         2.643880         1.163953
