19
Iteration:  4810
 O         0.294535        -0.357046         0.191408
 C        -0.540462         0.724652         0.180190
 C        -2.050775         0.470859         0.255636
 C        -2.087928         2.096326         0.301535
 C        -1.758821         2.574909        -1.050106
 C        -0.536544         1.506161        -1.200840
 O        -2.878250         2.842434         1.332974
 C        -1.911433         2.337475         2.237157
 C        -0.792042         1.946086         1.181432
 H         0.202101        -0.620332         1.116766
 H        -2.565404         0.083637        -0.724328
 H        -2.634172         0.155812         1.096989
 H        -2.462461         2.448229        -1.898740
 H        -1.552655         3.682637        -1.002179
 H        -0.751692         0.867414        -2.055305
 H         0.463394         2.072529        -1.339504
 H        -1.371017         3.060051         2.785461
 H        -2.290376         1.474314         2.842150
 H        -0.140557         2.774168         1.060066
