19
Iteration:  2870charge 0 multiplicity 1
 O         0.364008        -0.283086         0.281186
 C        -0.610797         0.725642         0.113529
 C        -2.087425         0.477032         0.407228
 C        -2.116636         2.086350         0.382037
 C        -1.834726         2.460141        -1.237154
 C        -0.713500         1.372017        -1.377814
 O        -2.759114         2.890748         1.367165
 C        -1.805864         2.384660         2.337660
 C        -0.748291         2.090109         1.113557
 H         0.014806        -0.873590         0.988379
 H        -2.690817        -0.100942        -0.308691
 H        -2.132670        -0.027944         1.378724
 H        -2.573091         2.360252        -2.002322
 H        -1.319024         3.432104        -1.221861
 H        -1.209434         0.560138        -2.003266
 H         0.236728         1.712104        -1.777496
 H        -1.516239         3.294077         2.763312
 H        -2.115585         1.541386         2.966316
 H         0.059360         2.881115         1.108065
