19
Iteration:  1613
 O         0.294754        -0.205586         0.404148
 C        -0.665382         0.799292         0.202519
 C        -2.099509         0.460683         0.413005
 C        -2.150140         2.118641         0.333050
 C        -1.828715         2.348712        -1.108913
 C        -0.576343         1.390634        -1.273508
 O        -2.762429         2.947675         1.285894
 C        -1.708464         2.318599         2.210989
 C        -0.762948         2.037669         1.032967
 H         0.040137        -0.756045        -0.385678
 H        -2.636742        -0.129303        -0.346811
 H        -2.337085         0.090161         1.371295
 H        -2.657573         1.843757        -1.800118
 H        -1.768956         3.337027        -1.412410
 H        -0.958396         0.684362        -2.084208
 H         0.390112         1.769226        -1.534850
 H        -1.252878         2.908949         2.940994
 H        -2.254674         1.425905         2.731450
 H        -0.156315         2.921252         0.902892
