19
Iteration:   253charge 0 multiplicity 1
 O         0.366396        -0.087404         0.532147
 C        -0.673916         0.756155         0.134294
 C        -2.181551         0.508984         0.462115
 C        -2.199648         2.091655         0.245008
 C        -1.881642         2.380440        -1.183090
 C        -0.791413         1.236836        -1.336181
 O        -2.765295         2.723199         1.399178
 C        -1.471504         2.382959         2.221666
 C        -0.743517         2.159747         0.836360
 H        -0.030972        -0.711221         1.167812
 H        -2.670342        -0.155048        -0.236008
 H        -2.317935         0.385369         1.542930
 H        -2.685043         2.271522        -1.901213
 H        -1.541610         3.464514        -1.241738
 H        -1.068070         0.521777        -2.067860
 H         0.197220         1.672177        -1.654402
 H        -1.172633         3.355586         2.567316
 H        -1.563889         1.605343         2.960078
 H        -0.023242         2.865544         0.538829
