19
Iteration:  4303
 O         0.290511        -0.387370         0.369845
 C        -0.676928         0.723792         0.170478
 C        -2.135016         0.521412         0.194118
 C        -2.130699         2.063223         0.331651
 C        -1.781774         2.641277        -1.060354
 C        -0.604101         1.491882        -1.244848
 O        -2.807425         2.798545         1.388531
 C        -1.737996         2.304357         2.218740
 C        -0.770500         1.999887         0.998401
 H         0.698287        -0.356684         1.262622
 H        -2.608097         0.028663        -0.704673
 H        -2.594298         0.173838         1.115175
 H        -2.532255         2.471177        -1.897280
 H        -1.320787         3.592695        -1.176196
 H        -0.667008         0.826799        -2.138931
 H         0.347488         1.929912        -1.427448
 H        -1.500875         3.105391         3.058394
 H        -2.036909         1.515185         2.864794
 H        -0.053989         2.824641         0.747563
