19
Iteration:  2063
 O         0.233220        -0.183843         0.456135
 C        -0.713828         0.745633         0.123120
 C        -2.181252         0.516186         0.357785
 C        -2.127609         2.136285         0.318108
 C        -1.799044         2.460827        -1.155796
 C        -0.651376         1.353814        -1.268959
 O        -2.849543         2.671542         1.425775
 C        -1.485458         2.415077         2.178549
 C        -0.705513         2.034214         0.908745
 H        -0.101002        -0.594005         1.280898
 H        -2.835796        -0.218287        -0.286451
 H        -2.689929         0.388834         1.342049
 H        -2.555287         2.188533        -1.899628
 H        -1.499539         3.498565        -1.584993
 H        -0.705903         0.656729        -2.137024
 H         0.280421         1.967024        -1.461442
 H        -1.160863         3.395562         2.524721
 H        -1.491995         1.703455         3.090044
 H         0.008724         2.909011         0.622254
