19
Iteration:  1356charge 0 multiplicity 1
 O         0.448835        -0.236708         0.481144
 C        -0.619107         0.733101         0.184596
 C        -2.253005         0.563792         0.337574
 C        -2.102844         2.070405         0.302503
 C        -1.898541         2.406435        -1.142881
 C        -0.636577         1.362830        -1.360640
 O        -2.807536         2.947038         1.310863
 C        -1.776020         2.293160         2.230128
 C        -0.703590         2.005828         1.089308
 H         0.619855        -0.756413        -0.330544
 H        -2.827172         0.051315        -0.472509
 H        -2.412544        -0.039374         1.217030
 H        -2.770596         2.443953        -1.793874
 H        -1.439069         3.455887        -1.228874
 H        -0.760791         0.503050        -2.079242
 H         0.272061         1.974882        -1.556572
 H        -1.560684         3.128684         3.001815
 H        -2.146554         1.489869         2.766392
 H         0.064938         2.808502         1.260443
