19
Iteration:   204charge 0 multiplicity 1
 O         0.357888        -0.275424         0.201285
 C        -0.582880         0.745329         0.236537
 C        -2.177655         0.544261         0.351152
 C        -2.122439         2.035569         0.372564
 C        -2.001042         2.202470        -1.130648
 C        -0.642566         1.275586        -1.211015
 O        -2.766041         2.947287         1.339355
 C        -1.689777         2.559841         2.241019
 C        -0.727144         2.098119         1.068375
 H         1.072194         0.024330         0.783000
 H        -2.709621         0.144623        -0.589635
 H        -2.359091        -0.040342         1.237368
 H        -2.917634         1.803105        -1.681552
 H        -1.732043         3.197056        -1.477619
 H        -0.709417         0.194666        -1.681213
 H         0.190435         1.845282        -1.598169
 H        -1.315207         3.445755         2.849733
 H        -2.042053         1.731752         2.974664
 H        -0.203480         3.019373         0.532884
