19
Iteration:  3477
 O         0.216031        -0.346316         0.395930
 C        -0.587812         0.762296         0.145891
 C        -2.165481         0.570215         0.247106
 C        -2.069279         2.182898         0.296682
 C        -1.775706         2.578668        -1.114844
 C        -0.597958         1.449897        -1.206097
 O        -2.850275         2.745008         1.360305
 C        -1.715902         2.163422         2.256498
 C        -0.773774         2.092717         1.063434
 H         1.117983         0.043111         0.427772
 H        -2.637163         0.054489        -0.730075
 H        -2.526360         0.044236         1.174457
 H        -2.409523         2.215757        -1.939647
 H        -1.538331         3.633949        -1.196581
 H        -1.122179         0.811254        -2.033247
 H         0.359022         1.836091        -1.631720
 H        -1.459709         2.961296         3.034200
 H        -1.937841         1.144625         2.688840
 H        -0.052445         2.918106         0.984928
