19
Iteration:  3504charge 0 multiplicity 1
 O         0.292568        -0.196432         0.468411
 C        -0.692613         0.676274         0.070802
 C        -2.222937         0.444140         0.193227
 C        -2.098249         2.065873         0.221793
 C        -1.727494         2.552871        -1.123479
 C        -0.603907         1.468410        -1.272455
 O        -2.759364         2.872749         1.477923
 C        -1.746589         2.241049         2.255219
 C        -0.886083         1.920809         1.083350
 H         0.976915         0.271380        -0.061971
 H        -2.742692        -0.005721        -0.534264
 H        -2.349676         0.020090         1.161874
 H        -2.291375         2.688639        -2.028861
 H        -1.071090         3.474625        -0.926638
 H        -0.759897         0.914147        -2.099436
 H         0.322869         2.053264        -1.376050
 H        -1.175485         2.818476         2.905048
 H        -2.132359         1.410569         2.836551
 H        -0.162704         2.742717         0.985895
