19
Iteration:  4853
 O         0.199156        -0.304037         0.332514
 C        -0.694347         0.766476         0.115334
 C        -2.204232         0.578212         0.168714
 C        -2.174642         2.185012         0.272158
 C        -1.699442         2.469903        -1.168624
 C        -0.417233         1.544066        -1.162747
 O        -2.829399         2.682363         1.465386
 C        -1.740655         2.248782         2.251773
 C        -0.842088         2.010629         1.080229
 H         0.960898        -0.238606         0.907372
 H        -2.751256        -0.083924        -0.615427
 H        -2.352075         0.045502         1.086764
 H        -2.443372         2.123632        -1.922971
 H        -1.256123         3.474349        -1.410312
 H        -0.192831         1.045856        -2.076924
 H         0.512598         2.210047        -1.009125
 H        -1.483210         3.171830         2.802159
 H        -2.118993         1.383098         2.892100
 H        -0.112243         2.819069         1.034879
