19
Iteration:     5
 O         0.362331        -0.208774         0.325617
 C        -0.670348         0.772529         0.223577
 C        -2.124994         0.491621         0.414178
 C        -2.193499         2.088241         0.312461
 C        -1.905075         2.366146        -1.201014
 C        -0.655019         1.355909        -1.244346
 O        -2.788945         2.748487         1.349553
 C        -1.635295         2.465572         2.222763
 C        -0.756425         2.079877         1.003424
 H         0.371495        -0.561292         1.246036
 H        -2.552013        -0.113808        -0.402259
 H        -2.416914         0.181448         1.445222
 H        -2.577542         2.084707        -2.024754
 H        -1.586797         3.412326        -1.400240
 H        -0.792352         0.616972        -2.019319
 H         0.298646         1.945378        -1.484179
 H        -1.415654         3.492183         2.544481
 H        -1.837290         1.657077         2.931065
 H         0.041635         2.856958         0.724739
