19
Iteration:  4728
 O         0.169907        -0.298586         0.563168
 C        -0.636618         0.764309         0.226275
 C        -2.110324         0.531982         0.162957
 C        -2.170575         2.116450         0.327437
 C        -1.800848         2.503819        -1.087341
 C        -0.483811         1.640398        -1.325362
 O        -2.782023         2.757392         1.362313
 C        -1.716448         2.208103         2.200012
 C        -0.768082         1.995559         1.019532
 H         0.067867        -0.981263        -0.124357
 H        -2.466054         0.096778        -0.752829
 H        -2.259076        -0.181220         1.092509
 H        -2.595413         2.208916        -1.899693
 H        -1.643373         3.584907        -1.054692
 H        -0.588915         0.967534        -2.264000
 H         0.351462         2.270090        -1.552420
 H        -1.379011         3.002963         3.028537
 H        -2.002594         1.371398         2.854257
 H        -0.033233         2.839226         0.733197
