19
Iteration:  2921
 O         0.253063        -0.304310         0.326420
 C        -0.694738         0.713310         0.186623
 C        -2.258504         0.518328         0.291066
 C        -2.163794         2.088902         0.283061
 C        -1.916160         2.423195        -1.271164
 C        -0.580348         1.507217        -1.192112
 O        -2.756207         2.714622         1.443646
 C        -1.590399         2.496520         2.237984
 C        -0.723472         1.977161         1.069589
 H         0.994179        -0.033407         0.892745
 H        -2.489583        -0.140227        -0.502348
 H        -2.782994         0.338042         1.351914
 H        -2.677995         2.057238        -2.029878
 H        -1.596844         3.426186        -1.542411
 H        -0.421476         0.831373        -2.080622
 H         0.261458         2.179598        -1.137795
 H        -1.118237         3.425207         2.716400
 H        -1.770211         1.710298         3.064802
 H         0.191901         2.583596         0.823059
