19
Iteration:   815
 O         0.407211        -0.057191         0.595866
 C        -0.700352         0.679822         0.142402
 C        -2.200549         0.569926         0.403857
 C        -2.030487         2.159940         0.261643
 C        -1.901903         2.375172        -1.216101
 C        -0.743862         1.315532        -1.381446
 O        -2.791214         2.778576         1.342860
 C        -1.648439         2.364823         2.284933
 C        -0.694630         2.032557         0.976159
 H         0.283264        -0.994278         0.271917
 H        -2.914300         0.129640        -0.370456
 H        -2.445197         0.068595         1.348703
 H        -2.721196         1.975747        -1.724356
 H        -1.711178         3.376317        -1.714566
 H        -0.965426         0.579201        -2.137417
 H         0.279206         1.686977        -1.562028
 H        -1.311312         3.209893         2.831120
 H        -1.936202         1.387509         2.789777
 H         0.055674         2.723827         0.737966
