19
Iteration:   987charge 0 multiplicity 1
 O         0.455062        -0.151018         0.366223
 C        -0.640509         0.706945         0.259448
 C        -2.208202         0.527837         0.356797
 C        -2.176872         2.021550         0.338823
 C        -1.818958         2.405617        -1.199187
 C        -0.634479         1.352161        -1.293013
 O        -2.791246         2.844561         1.361128
 C        -1.736547         2.459600         2.249521
 C        -0.800347         2.001311         1.045814
 H         0.207514        -0.991606        -0.045109
 H        -2.615379         0.040429        -0.513127
 H        -2.613725         0.081535         1.233404
 H        -2.662089         2.231931        -1.911450
 H        -1.377440         3.421398        -1.321124
 H        -0.741105         0.507134        -1.950756
 H         0.380907         1.785249        -1.576237
 H        -1.411568         3.311037         2.876205
 H        -2.047062         1.584376         2.824923
 H        -0.125489         2.885002         0.792128
