19
Iteration:  1684
 O         0.265863        -0.249309         0.530945
 C        -0.635771         0.719726         0.159353
 C        -2.205076         0.486392         0.296157
 C        -2.163638         2.060627         0.266381
 C        -1.754209         2.449923        -1.087135
 C        -0.653094         1.375459        -1.316193
 O        -2.810904         2.702706         1.438711
 C        -1.607272         2.495555         2.190002
 C        -0.787442         2.138559         0.909500
 H         0.357143        -0.984183        -0.133719
 H        -2.478560        -0.158671        -0.565202
 H        -2.666707         0.116975         1.250795
 H        -2.564047         2.343129        -1.793323
 H        -1.429776         3.593633        -1.110716
 H        -0.767470         0.691825        -2.154428
 H         0.377798         1.858485        -1.310850
 H        -1.190561         3.498392         2.690473
 H        -1.758629         1.728676         2.978013
 H        -0.064736         2.986600         0.764753
