19
Iteration:  2950charge 0 multiplicity 1
 O         0.192997        -0.334489         0.470310
 C        -0.582274         0.805155         0.080359
 C        -2.187462         0.503936         0.286172
 C        -2.169628         2.053902         0.394310
 C        -1.858062         2.467234        -1.094268
 C        -0.628465         1.434082        -1.316700
 O        -2.830991         2.778859         1.429003
 C        -1.633981         2.411080         2.196158
 C        -0.665961         2.063642         0.959096
 H         1.136293        -0.135655         0.660401
 H        -2.617982        -0.064174        -0.557306
 H        -2.405513        -0.004815         1.180987
 H        -2.637825         2.270871        -1.874322
 H        -1.566995         3.506527        -1.321152
 H        -0.811826         0.674954        -2.047827
 H         0.303417         1.947471        -1.708601
 H        -1.282390         3.127068         2.925201
 H        -1.860178         1.539536         2.733114
 H         0.071679         2.803951         0.704427
