19
Iteration:   933
 O         0.263583        -0.259579         0.553342
 C        -0.623402         0.780266         0.144171
 C        -2.118515         0.467927         0.356799
 C        -2.205835         2.048708         0.288280
 C        -1.848868         2.441023        -1.179613
 C        -0.600753         1.365071        -1.304004
 O        -2.835952         2.862417         1.418423
 C        -1.618062         2.328152         2.179105
 C        -0.797274         2.124506         0.928682
 H         1.056922        -0.248264         0.010005
 H        -2.504785        -0.273355        -0.324214
 H        -2.227160         0.106981         1.356941
 H        -2.625721         2.230169        -1.952526
 H        -1.669654         3.547917        -1.225297
 H        -0.985034         0.609521        -1.964788
 H         0.399664         1.807428        -1.657953
 H        -1.282556         3.149421         2.810294
 H        -1.754798         1.432853         2.754585
 H        -0.084676         2.972782         0.830619
