19
Iteration:  1934
 O         0.240774        -0.305893         0.487368
 C        -0.640893         0.706593         0.173292
 C        -2.150116         0.599100         0.359913
 C        -2.193841         2.075854         0.264477
 C        -1.830305         2.504782        -1.220481
 C        -0.647264         1.439556        -1.321555
 O        -2.869752         2.658610         1.465911
 C        -1.507201         2.491412         2.106831
 C        -0.707245         1.983556         0.957799
 H         0.364033        -0.347929         1.430277
 H        -2.852830         0.044562        -0.320374
 H        -2.452248         0.488748         1.378681
 H        -2.659312         2.229212        -1.854543
 H        -1.519939         3.613514        -1.306328
 H        -0.995996         0.697821        -2.059798
 H         0.401722         1.783023        -1.545729
 H        -1.273993         3.449130         2.693205
 H        -1.518932         1.735588         3.045170
 H         0.109550         2.690209         0.580451
