19
Iteration:  4089
 O         0.296601        -0.236465         0.247910
 C        -0.670012         0.709857         0.205907
 C        -2.189359         0.550988         0.240114
 C        -2.132518         2.110220         0.276502
 C        -1.682226         2.529703        -1.188797
 C        -0.548398         1.474072        -1.121348
 O        -2.893431         2.647611         1.413247
 C        -1.625859         2.341781         2.274720
 C        -0.861256         2.046713         1.059183
 H        -0.136326        -0.915003         0.794240
 H        -2.752531         0.097034        -0.594783
 H        -2.600721         0.345413         1.191423
 H        -2.342000         2.371923        -1.986197
 H        -1.352871         3.593699        -1.228842
 H        -0.544785         0.832233        -2.039942
 H         0.516684         1.980115        -1.255338
 H        -1.398192         3.280378         2.719624
 H        -1.933209         1.667603         3.177594
 H         0.026116         2.650134         0.823896
