19
Iteration:    87
 O         0.420259        -0.127493         0.327530
 C        -0.645297         0.767360         0.178759
 C        -2.151579         0.514239         0.542936
 C        -2.156655         2.090940         0.317880
 C        -1.901294         2.369166        -1.193036
 C        -0.693232         1.293012        -1.205750
 O        -2.783509         2.873694         1.235646
 C        -1.644052         2.282277         2.243885
 C        -0.740874         2.109331         0.942703
 H         0.100809        -0.910767         0.783824
 H        -2.718165        -0.015943        -0.194867
 H        -2.434003         0.187037         1.529650
 H        -2.728244         2.078649        -1.849780
 H        -1.611374         3.426840        -1.365173
 H        -0.866641         0.531740        -1.985018
 H         0.171260         1.835312        -1.462714
 H        -1.298673         3.022673         2.952556
 H        -2.127998         1.583032         2.892498
 H        -0.050982         2.862310         0.889603
