19
Iteration:  3139
 O         0.314577        -0.367741         0.254453
 C        -0.645127         0.744584         0.163319
 C        -2.134565         0.475960         0.337922
 C        -2.175642         2.089678         0.298364
 C        -1.829301         2.574637        -1.096462
 C        -0.626430         1.522783        -1.211479
 O        -2.759603         2.847197         1.282700
 C        -1.705095         2.360296         2.286460
 C        -0.823117         1.892455         1.115078
 H         1.095885        -0.092741         0.752723
 H        -2.578191        -0.103794        -0.493442
 H        -2.373614         0.129705         1.348679
 H        -2.610210         2.342575        -1.895368
 H        -1.413104         3.576394        -1.126450
 H        -0.905719         0.717526        -1.958877
 H         0.226201         2.044978        -1.588172
 H        -1.381856         3.159394         2.980037
 H        -2.122852         1.599109         2.873988
 H        -0.127505         2.672697         0.926183
