19
Iteration:  4666charge 0 multiplicity 1
 O         0.395145        -0.216644         0.321728
 C        -0.672597         0.697238         0.187022
 C        -2.188860         0.562043         0.201935
 C        -2.099139         2.086635         0.354600
 C        -1.734915         2.564532        -1.068460
 C        -0.627511         1.350184        -1.188567
 O        -2.841363         2.831297         1.318304
 C        -1.810976         2.325115         2.291289
 C        -0.759797         1.926674         1.128524
 H         0.580123        -0.484186        -0.603150
 H        -2.732042         0.077598        -0.576119
 H        -2.522901        -0.083040         1.035416
 H        -2.374081         2.550616        -1.905810
 H        -1.212090         3.542893        -1.063856
 H        -0.831503         0.597307        -1.898568
 H         0.385945         1.822280        -1.482332
 H        -1.553855         3.252115         2.768186
 H        -2.268648         1.556153         2.848615
 H        -0.184939         2.831343         0.907288
