19
Iteration:  2006charge 0 multiplicity 1
 O         0.337269        -0.226870         0.189651
 C        -0.732337         0.669843         0.213103
 C        -2.202052         0.540040         0.496496
 C        -2.047306         2.136630         0.342396
 C        -1.856790         2.365555        -1.181898
 C        -0.672665         1.338498        -1.295004
 O        -2.728507         2.901489         1.286344
 C        -1.801735         2.433200         2.267422
 C        -0.660133         2.008586         1.121217
 H         0.621246        -0.724534         0.964062
 H        -2.934877         0.038645        -0.237386
 H        -2.213943         0.211421         1.572542
 H        -2.638541         1.922612        -1.815516
 H        -1.584194         3.416633        -1.481402
 H        -0.735519         0.538816        -2.042428
 H         0.257738         1.943908        -1.422933
 H        -1.500692         3.338559         2.839000
 H        -2.047225         1.500401         2.756139
 H         0.133313         2.763883         0.817571
