19
Iteration:  4631
 O         0.278343        -0.239762         0.577548
 C        -0.652546         0.766052         0.112447
 C        -2.127519         0.523041         0.269583
 C        -2.161753         2.135715         0.288035
 C        -1.809757         2.613129        -1.144981
 C        -0.581961         1.523027        -1.309811
 O        -2.790312         2.753856         1.358918
 C        -1.730818         2.195758         2.223055
 C        -0.775983         1.923223         1.021964
 H         0.251354        -0.701668        -0.280518
 H        -2.694354         0.091154        -0.484892
 H        -2.193489         0.169084         1.323824
 H        -2.546979         2.560979        -1.976858
 H        -1.345660         3.568514        -1.160494
 H        -0.828464         0.779199        -2.064570
 H         0.466463         1.784259        -1.403234
 H        -1.366748         2.857883         3.064597
 H        -1.964070         1.332967         2.790925
 H        -0.085392         2.820691         0.830657
