19
Iteration:  1697charge 0 multiplicity 1
 O         0.306194        -0.338583         0.477513
 C        -0.673552         0.693415         0.202349
 C        -2.111288         0.435465         0.366681
 C        -2.143512         2.120935         0.315747
 C        -1.841160         2.502781        -1.206327
 C        -0.584066         1.430705        -1.228902
 O        -2.858838         2.809233         1.360913
 C        -1.626019         2.441941         2.250373
 C        -0.786381         2.090123         0.953090
 H         0.435081        -0.777244        -0.361632
 H        -2.744503        -0.004882        -0.415814
 H        -2.345639         0.035823         1.337619
 H        -2.559453         2.266234        -1.945838
 H        -1.504348         3.558541        -1.355068
 H        -0.932587         0.718228        -1.940715
 H         0.348206         1.828732        -1.648144
 H        -1.388553         3.424820         2.792751
 H        -1.691303         1.633716         2.948598
 H        -0.164649         2.846615         0.487451
