19
Iteration:  4396charge 0 multiplicity 1
 O         0.301609        -0.287472         0.198642
 C        -0.630885         0.722284         0.125392
 C        -2.202064         0.476794         0.272239
 C        -2.178435         2.073109         0.354724
 C        -1.768181         2.423527        -1.032081
 C        -0.525477         1.531464        -1.253089
 O        -2.770035         2.917515         1.316029
 C        -1.796691         2.363828         2.250336
 C        -0.757525         1.939665         1.162127
 H         0.407776        -0.562757         1.118258
 H        -2.865494         0.064267        -0.466302
 H        -2.312369        -0.079596         1.234592
 H        -2.654885         2.382852        -1.659777
 H        -1.311401         3.501351        -1.230383
 H        -0.566726         0.862315        -2.090561
 H         0.519660         1.809815        -1.259342
 H        -1.616513         3.014645         3.030509
 H        -2.191724         1.415473         2.751901
 H        -0.181360         2.792945         0.908750
