19
Iteration:  1576
 O         0.429894        -0.320930         0.397974
 C        -0.641564         0.666554         0.298516
 C        -2.259007         0.601299         0.300188
 C        -2.150957         2.121495         0.330610
 C        -1.854183         2.415513        -1.118909
 C        -0.600707         1.448158        -1.267031
 O        -2.861334         2.785523         1.332971
 C        -1.640911         2.479736         2.206464
 C        -0.766626         1.954428         1.042062
 H         0.647308        -0.514780        -0.534381
 H        -2.829940         0.078759        -0.463329
 H        -2.548358         0.260336         1.333918
 H        -2.572169         1.940676        -1.712070
 H        -1.773534         3.525686        -1.385230
 H        -0.771277         0.641105        -1.966945
 H         0.451295         1.846829        -1.448168
 H        -1.309418         3.591696         2.413711
 H        -1.968855         1.849268         2.997088
 H        -0.033397         2.742975         0.715695
