19
Iteration:  3248
 O         0.413937        -0.260248         0.298640
 C        -0.699064         0.732716         0.161860
 C        -2.188992         0.537390         0.267771
 C        -2.094814         2.161806         0.252373
 C        -1.729745         2.521206        -1.153091
 C        -0.657772         1.417250        -1.321781
 O        -2.862525         2.861458         1.438920
 C        -1.773291         2.192268         2.293438
 C        -0.733417         2.013617         1.113234
 H         0.091995        -0.861985         1.015231
 H        -2.736124        -0.038228        -0.525170
 H        -2.396486         0.221340         1.231554
 H        -2.597228         2.606212        -1.929594
 H        -1.185000         3.475580        -1.180749
 H        -0.819668         0.615082        -2.105538
 H         0.245358         1.944588        -1.541294
 H        -1.389981         3.010967         2.972030
 H        -2.141512         1.430818         2.965591
 H         0.053266         2.711459         1.065423
