19
Iteration:  2850charge 0 multiplicity 1
 O         0.413739        -0.187085         0.337025
 C        -0.649858         0.731836         0.260272
 C        -2.161208         0.528136         0.349932
 C        -2.090838         2.169784         0.290092
 C        -1.806292         2.478556        -1.102860
 C        -0.753221         1.299573        -1.265848
 O        -2.830689         2.835016         1.320840
 C        -1.660355         2.340626         2.259079
 C        -0.733543         1.999174         0.988048
 H         0.006716        -1.064477         0.274875
 H        -2.753689         0.022182        -0.482682
 H        -2.468891         0.326681         1.306950
 H        -2.802210         2.301526        -1.592817
 H        -1.402771         3.509892        -1.334247
 H        -1.112496         0.464002        -1.873711
 H         0.223597         1.734595        -1.638992
 H        -1.282805         3.135848         2.924998
 H        -2.045223         1.502737         2.795985
 H         0.000644         2.781646         0.887080
