19
Iteration:  2500charge 0 multiplicity 1
 O         0.401920        -0.227448         0.308357
 C        -0.697557         0.711102         0.207474
 C        -2.145198         0.493182         0.408194
 C        -2.129012         2.103804         0.347790
 C        -1.828928         2.413358        -1.120061
 C        -0.737412         1.319733        -1.332032
 O        -2.801992         2.824658         1.346194
 C        -1.631003         2.491772         2.295446
 C        -0.738161         2.072232         0.984662
 H        -0.064769        -1.090804         0.295473
 H        -2.693952        -0.128321        -0.386305
 H        -2.440515         0.235746         1.499118
 H        -2.741206         2.241219        -1.759173
 H        -1.507276         3.476603        -1.263132
 H        -1.048638         0.586794        -2.123115
 H         0.255541         1.663990        -1.572267
 H        -1.273586         3.399376         2.755989
 H        -1.705385         1.599607         2.992265
 H        -0.066126         2.850375         0.729138
