19
Iteration:   288charge 0 multiplicity 1
 O         0.332097        -0.287450         0.404126
 C        -0.645298         0.776001         0.220567
 C        -2.091483         0.492248         0.324477
 C        -2.156219         2.086458         0.250733
 C        -2.032152         2.313865        -1.231556
 C        -0.666615         1.290168        -1.273747
 O        -2.793933         2.732317         1.485036
 C        -1.535851         2.653407         2.274758
 C        -0.705905         2.170129         0.928807
 H        -0.204695        -1.100537         0.405604
 H        -2.565693        -0.268241        -0.398814
 H        -2.451394         0.110601         1.278413
 H        -2.813309         1.805024        -1.867233
 H        -1.811769         3.313754        -1.533373
 H        -0.808101         0.495555        -1.984553
 H         0.239561         1.908450        -1.448612
 H        -1.332147         3.726612         2.510819
 H        -1.545778         2.226094         3.253236
 H         0.109012         2.925229         0.772701
