19
Iteration:   901
 O         0.233814        -0.354944         0.368129
 C        -0.661718         0.722545         0.222228
 C        -2.208938         0.503765         0.304560
 C        -2.094809         2.025579         0.251539
 C        -1.980308         2.327141        -1.185002
 C        -0.553310         1.527531        -1.248613
 O        -2.813851         2.720600         1.381465
 C        -1.612915         2.574480         2.208566
 C        -0.694742         2.118960         1.099854
 H         1.117900        -0.048084         0.690305
 H        -2.557689        -0.135600        -0.524117
 H        -2.523873         0.166354         1.266469
 H        -2.668623         1.738657        -1.806965
 H        -1.886035         3.400437        -1.579846
 H        -0.539067         0.704424        -1.960532
 H         0.474875         2.120096        -1.299170
 H        -1.480606         3.560364         2.615568
 H        -1.732934         1.985607         3.112418
 H         0.168846         2.696400         0.793699
