19
Iteration:   517
 O         0.312061        -0.205250         0.488765
 C        -0.684376         0.687514         0.263707
 C        -2.227478         0.548496         0.402649
 C        -2.164789         2.105354         0.245381
 C        -1.999212         2.357443        -1.292985
 C        -0.769273         1.360325        -1.249097
 O        -2.763009         2.707923         1.393922
 C        -1.460546         2.541175         2.102400
 C        -0.645733         2.021969         0.980304
 H         0.719015         0.319437         1.187878
 H        -2.665047        -0.192684        -0.337319
 H        -2.359467         0.262032         1.449721
 H        -2.921512         1.984728        -1.961489
 H        -1.738564         3.363917        -1.501984
 H        -1.007513         0.568127        -2.010601
 H         0.222132         1.754100        -1.622903
 H        -1.023814         3.544585         2.585218
 H        -1.453034         1.905182         3.000037
 H         0.275394         2.622110         0.799070
