19
Iteration:  1533
 O         0.249237        -0.310514         0.579917
 C        -0.597362         0.774690         0.192733
 C        -2.150221         0.514210         0.351674
 C        -2.134932         2.057021         0.223734
 C        -1.802368         2.495805        -1.201183
 C        -0.619593         1.419470        -1.309330
 O        -2.829059         2.728331         1.413890
 C        -1.620581         2.406915         2.216216
 C        -0.824168         2.104712         0.941911
 H         0.615224        -0.671178        -0.262482
 H        -2.633948        -0.097610        -0.393099
 H        -2.442100         0.318733         1.416912
 H        -2.695923         2.307864        -1.794538
 H        -1.411235         3.589712        -1.270819
 H        -1.014610         0.647707        -1.946428
 H         0.280293         1.880451        -1.850626
 H        -1.235191         3.284724         2.896214
 H        -1.634532         1.458444         2.786537
 H        -0.143940         2.965694         0.678294
