19
Iteration:  1082charge 0 multiplicity 1
 O         0.461162        -0.176522         0.347998
 C        -0.638841         0.754872         0.190629
 C        -2.314885         0.515517         0.401460
 C        -2.196399         2.059909         0.263618
 C        -1.718169         2.523148        -1.159772
 C        -0.698122         1.324120        -1.212313
 O        -2.809406         2.821084         1.262329
 C        -1.655599         2.302949         2.271669
 C        -0.802066         1.988528         0.994083
 H         0.652681        -0.055322         1.281446
 H        -2.887481        -0.086811        -0.327227
 H        -2.481448         0.068749         1.392174
 H        -2.465844         2.543041        -1.993888
 H        -1.219937         3.435879        -1.030985
 H        -0.926686         0.515431        -1.955560
 H         0.263626         1.627483        -1.530847
 H        -1.397688         3.261607         2.892437
 H        -1.931738         1.453825         2.883546
 H        -0.322176         2.941323         0.760566
