19
Iteration:  2131
 O         0.356146        -0.220575         0.178797
 C        -0.639362         0.758355         0.214676
 C        -2.301602         0.488246         0.500364
 C        -2.136776         2.015124         0.271192
 C        -1.843512         2.389335        -1.169499
 C        -0.673160         1.399416        -1.249031
 O        -2.720052         2.903167         1.254770
 C        -1.730543         2.452906         2.283112
 C        -0.641559         1.964377         1.120603
 H         0.599386        -0.650049         1.032921
 H        -2.767044        -0.197665        -0.104147
 H        -2.474192         0.264794         1.531591
 H        -2.736594         2.141424        -1.766580
 H        -1.608703         3.408553        -1.349903
 H        -0.803188         0.603509        -2.021694
 H         0.319548         1.807022        -1.341791
 H        -1.469846         3.335632         2.870594
 H        -2.164001         1.650602         2.977767
 H        -0.049398         2.753020         0.702774
