19
Iteration:  3969
 O         0.249892        -0.339638         0.254557
 C        -0.599348         0.781091         0.180297
 C        -2.144735         0.497944         0.221095
 C        -2.174791         2.039532         0.298218
 C        -1.747223         2.538403        -1.027804
 C        -0.558210         1.526076        -1.172224
 O        -2.837625         2.719674         1.350190
 C        -1.729525         2.351170         2.249703
 C        -0.801070         2.075254         1.043808
 H         0.088253        -0.805959         1.095735
 H        -2.420203         0.050666        -0.739433
 H        -2.448023         0.084714         1.149529
 H        -2.428200         2.507690        -1.848465
 H        -1.231198         3.526548        -1.008751
 H        -0.686661         0.700820        -1.948666
 H         0.400611         2.105615        -1.428455
 H        -1.371708         3.212163         2.748072
 H        -1.852990         1.495686         2.974445
 H        -0.172634         2.969596         0.945236
