19
Iteration:  2675
 O         0.196321        -0.315085         0.427283
 C        -0.609978         0.730789         0.042634
 C        -2.068260         0.634349         0.362953
 C        -2.095605         2.111735         0.307562
 C        -1.979015         2.271593        -1.172744
 C        -0.608601         1.424439        -1.328525
 O        -2.776706         2.716372         1.479032
 C        -1.590760         2.452469         2.267277
 C        -0.710163         2.239255         0.986322
 H        -0.300064        -1.145822         0.289357
 H        -2.738841        -0.088392        -0.104062
 H        -2.289726         0.232076         1.398259
 H        -2.840199         2.002949        -1.869996
 H        -1.655695         3.328897        -1.411185
 H        -0.680707         0.709371        -2.190423
 H         0.317952         1.947074        -1.512307
 H        -1.227254         3.289830         2.855379
 H        -1.932587         1.604874         2.928465
 H         0.005254         2.972085         0.672754
