19
Iteration:    63
 O         0.348455        -0.335459         0.322023
 C        -0.535420         0.727258         0.170580
 C        -2.050554         0.397048         0.270996
 C        -2.103607         1.989760         0.324480
 C        -1.913429         2.394110        -1.151055
 C        -0.677583         1.381599        -1.297104
 O        -2.895608         2.810491         1.424551
 C        -1.666718         2.696656         2.224674
 C        -0.765087         2.099176         1.082309
 H         0.253467        -0.606339         1.244625
 H        -2.571636        -0.169902        -0.517471
 H        -2.453468         0.102244         1.220234
 H        -2.798474         2.107877        -1.812562
 H        -1.596054         3.419574        -1.318445
 H        -0.909993         0.497763        -2.025010
 H         0.087156         1.966166        -1.722468
 H        -1.306947         3.585765         2.819538
 H        -1.855718         2.037916         3.091312
 H        -0.121721         2.874570         0.712682
