19
Iteration:  4851charge 0 multiplicity 1
 O         0.194982        -0.292832         0.323158
 C        -0.700511         0.742508         0.121906
 C        -2.207674         0.566646         0.170241
 C        -2.155610         2.190598         0.274416
 C        -1.714552         2.472596        -1.163336
 C        -0.412278         1.558823        -1.157940
 O        -2.819538         2.675816         1.452549
 C        -1.732366         2.254196         2.231456
 C        -0.845374         1.994129         1.090822
 H         0.954112        -0.320368         0.907177
 H        -2.714437        -0.029614        -0.562511
 H        -2.423049         0.052693         1.127733
 H        -2.387640         2.055961        -1.924190
 H        -1.324420         3.472132        -1.376750
 H        -0.172531         1.108668        -2.051406
 H         0.498556         2.226727        -1.019319
 H        -1.526601         3.216896         2.826554
 H        -2.136563         1.477181         2.901536
 H        -0.145230         2.897660         1.084129
