19
Iteration:  2036charge 0 multiplicity 1
 O         0.303940        -0.348335         0.349430
 C        -0.625727         0.717531         0.236114
 C        -2.142657         0.531109         0.246962
 C        -2.200744         2.007086         0.304811
 C        -1.851567         2.446259        -1.126469
 C        -0.680150         1.374534        -1.257240
 O        -2.747722         2.827077         1.411264
 C        -1.618332         2.539998         2.234521
 C        -0.783269         2.058448         0.980212
 H         0.485535        -0.656635         1.269604
 H        -2.654073        -0.123633        -0.420208
 H        -2.492263         0.141505         1.265581
 H        -2.594340         2.370262        -1.967535
 H        -1.498435         3.432321        -1.216952
 H        -0.826599         0.602423        -2.008996
 H         0.175508         1.938125        -1.580305
 H        -1.246726         3.505316         2.636695
 H        -1.730549         1.790258         2.959215
 H        -0.267642         2.883625         0.602329
