19
Iteration:  2961
 O         0.182021        -0.335866         0.452698
 C        -0.593901         0.759735         0.237274
 C        -2.057295         0.516950         0.352682
 C        -2.151722         2.084017         0.234481
 C        -1.888136         2.495901        -1.142995
 C        -0.696718         1.413229        -1.332000
 O        -2.794430         2.803139         1.413691
 C        -1.622285         2.293294         2.175920
 C        -0.712676         2.119064         1.001194
 H         1.106204        -0.058742         0.315017
 H        -2.479179        -0.047201        -0.490801
 H        -2.392904         0.126151         1.271634
 H        -2.703534         2.522196        -1.899581
 H        -1.392022         3.443144        -0.949199
 H        -1.090899         0.677102        -1.992076
 H         0.283439         1.860768        -1.668239
 H        -1.485833         3.077590         2.893483
 H        -1.825916         1.372926         2.627584
 H        -0.133761         3.005563         0.854362
