19
Iteration:  1256charge 0 multiplicity 1
 O         0.305669        -0.293145         0.394979
 C        -0.624697         0.776165         0.232718
 C        -2.184859         0.527182         0.282527
 C        -2.133219         2.128689         0.257007
 C        -1.843638         2.410577        -1.167091
 C        -0.604173         1.401420        -1.252477
 O        -2.788462         2.815017         1.378795
 C        -1.687048         2.315588         2.226226
 C        -0.784623         2.054009         1.024667
 H         1.015417        -0.052868         0.997999
 H        -2.839655         0.283242        -0.571580
 H        -2.467935         0.183011         1.303084
 H        -2.626736         1.986915        -1.870257
 H        -1.634986         3.414337        -1.500554
 H        -0.907867         0.541965        -1.954391
 H         0.260299         1.951260        -1.551669
 H        -1.360538         3.220167         2.827473
 H        -1.886585         1.551035         2.905178
 H        -0.060672         2.850730         0.929239
