19
Iteration:  2722
 O         0.422483        -0.143665         0.296068
 C        -0.676867         0.711325         0.210393
 C        -2.239535         0.470751         0.358736
 C        -2.139389         2.040519         0.333376
 C        -1.877556         2.482945        -1.070552
 C        -0.727279         1.237195        -1.246022
 O        -2.703015         2.904464         1.372688
 C        -1.625785         2.444960         2.237872
 C        -0.796422         2.032082         0.956028
 H         0.160440        -0.936745         0.803995
 H        -2.859754         0.039910        -0.498282
 H        -2.554766        -0.108055         1.152171
 H        -2.663297         2.277660        -1.828804
 H        -1.415841         3.410383        -1.360072
 H        -0.844654         0.408188        -1.866079
 H         0.255133         1.741491        -1.542561
 H        -1.177056         3.278703         2.879816
 H        -1.838722         1.548371         2.824210
 H        -0.152903         2.787285         0.516865
