19
Iteration:   623charge 0 multiplicity 1
 O         0.360637        -0.267834         0.385722
 C        -0.673735         0.746270         0.211696
 C        -2.135944         0.430221         0.444351
 C        -2.229870         2.013327         0.296782
 C        -1.819552         2.299760        -1.253768
 C        -0.647228         1.247654        -1.265581
 O        -2.745708         2.885291         1.441344
 C        -1.612706         2.630206         2.253349
 C        -0.889548         2.149422         0.939108
 H         0.746740        -0.558959        -0.440421
 H        -2.707084        -0.277376        -0.116137
 H        -2.327559         0.259952         1.476514
 H        -2.562139         2.121662        -2.032873
 H        -1.500323         3.348123        -1.332942
 H        -0.836052         0.362388        -1.889610
 H         0.225271         1.830564        -1.581486
 H        -1.212053         3.532554         2.702631
 H        -1.798320         1.885291         3.009118
 H        -0.345273         3.061468         0.607348
