19
Iteration:   403charge 0 multiplicity 1
 O         0.253706        -0.164051         0.626694
 C        -0.649156         0.761338         0.198436
 C        -2.072370         0.443467         0.469619
 C        -2.242234         1.994010         0.257723
 C        -1.976018         2.391736        -1.285646
 C        -0.766163         1.302158        -1.315131
 O        -2.732341         2.816604         1.432722
 C        -1.395923         2.531854         2.169324
 C        -0.801883         2.126857         0.836472
 H         0.464415        -0.844295        -0.026375
 H        -2.530602        -0.145060        -0.242630
 H        -2.325715        -0.023660         1.408885
 H        -2.629220         2.222922        -2.063927
 H        -1.630508         3.488600        -1.292427
 H        -0.950060         0.538847        -2.100523
 H         0.241889         1.746695        -1.473619
 H        -1.094110         3.265307         2.883015
 H        -1.526893         1.631541         2.834752
 H        -0.100069         2.715850         0.303746
