19
Iteration:  2041charge 0 multiplicity 1
 O         0.314634        -0.346781         0.384253
 C        -0.658325         0.697001         0.248968
 C        -2.188826         0.537912         0.270435
 C        -2.187661         2.009380         0.293727
 C        -1.846543         2.440983        -1.179397
 C        -0.655483         1.394292        -1.286802
 O        -2.743169         2.783099         1.451495
 C        -1.595081         2.558652         2.207155
 C        -0.802670         2.090959         0.947252
 H         0.381127        -0.671460         1.296463
 H        -2.746755        -0.175436        -0.438722
 H        -2.308548        -0.050935         1.206153
 H        -2.644325         2.493631        -1.923362
 H        -1.507301         3.552882        -1.121024
 H        -0.889060         0.685991        -2.112079
 H         0.353711         1.852549        -1.551215
 H        -1.273680         3.469632         2.741971
 H        -1.739905         1.778558         3.048021
 H        -0.133866         2.975546         0.602866
