19
Iteration:   997
 O         0.425826        -0.222982         0.379293
 C        -0.652945         0.753429         0.143898
 C        -2.218203         0.416063         0.397423
 C        -2.141337         2.086497         0.257127
 C        -1.811846         2.336159        -1.168353
 C        -0.615028         1.427857        -1.225582
 O        -2.759580         2.827844         1.321597
 C        -1.727323         2.431185         2.287759
 C        -0.857346         2.113630         1.016304
 H         0.063184        -1.095869         0.119496
 H        -2.764887        -0.135963        -0.348431
 H        -2.393610         0.016385         1.378197
 H        -2.622799         2.242091        -1.947031
 H        -1.542785         3.397604        -1.099912
 H        -0.664704         0.759774        -2.060657
 H         0.282258         2.096719        -1.339499
 H        -1.375097         3.362477         2.863436
 H        -1.930260         1.703106         3.071203
 H         0.001378         2.847773         0.783451
