19
Iteration:  2278charge 0 multiplicity 1
 O         0.337765        -0.303420         0.366518
 C        -0.666248         0.664766         0.181245
 C        -2.136261         0.522553         0.470173
 C        -2.036557         2.052971         0.270788
 C        -1.908717         2.494867        -1.137808
 C        -0.710258         1.391797        -1.240744
 O        -2.753671         2.784735         1.328013
 C        -1.673960         2.474965         2.159221
 C        -0.763141         2.101582         1.069875
 H         0.246213        -0.982991        -0.326052
 H        -2.774424        -0.103589        -0.208821
 H        -2.317171         0.353553         1.539296
 H        -2.784636         2.310338        -1.768741
 H        -1.448251         3.510102        -1.334669
 H        -0.902112         0.753728        -2.086698
 H         0.154115         2.054537        -1.447441
 H        -1.508248         3.366401         2.869742
 H        -1.875182         1.604195         2.829849
 H         0.030552         2.636394         0.690026
