19
Iteration:  2792
 O         0.153853        -0.370254         0.471978
 C        -0.581318         0.769066         0.147844
 C        -2.113440         0.525308         0.316259
 C        -2.155974         2.066703         0.314141
 C        -1.942963         2.387957        -1.185814
 C        -0.615473         1.454406        -1.298080
 O        -2.772591         2.777188         1.426530
 C        -1.563634         2.480746         2.247314
 C        -0.735158         2.082832         0.950663
 H         1.125126        -0.308213         0.339807
 H        -2.751865         0.097957        -0.411656
 H        -2.443628        -0.003335         1.289405
 H        -2.804112         2.073184        -1.761393
 H        -1.750776         3.446287        -1.417890
 H        -0.650395         0.743290        -2.214441
 H         0.219783         2.114926        -1.426938
 H        -1.176922         3.211167         2.933816
 H        -1.967644         1.586869         2.759170
 H         0.010471         2.964324         0.770362
