19
Iteration:  2546
 O         0.264401        -0.259352         0.472157
 C        -0.630186         0.660745         0.083398
 C        -2.180313         0.478062         0.421508
 C        -2.056631         2.118058         0.289643
 C        -1.951063         2.373839        -1.247393
 C        -0.679577         1.474927        -1.278071
 O        -2.782632         2.745428         1.419999
 C        -1.526544         2.505849         2.262748
 C        -0.738770         2.068719         1.008304
 H         0.248969        -1.000748        -0.177714
 H        -2.914136         0.002123        -0.364654
 H        -2.448946         0.127495         1.507708
 H        -2.798946         1.935316        -1.869012
 H        -1.895095         3.457705        -1.483130
 H        -0.698699         0.819345        -2.145760
 H         0.218834         2.215374        -1.485928
 H        -0.995654         3.449355         2.580031
 H        -1.893445         1.885267         3.142737
 H         0.048652         2.813502         0.687064
