19
Iteration:  4500charge 0 multiplicity 1
 O         0.311601        -0.234898         0.310401
 C        -0.668174         0.743121         0.171717
 C        -2.265364         0.648007         0.240299
 C        -2.103003         2.127553         0.247819
 C        -1.763811         2.497338        -1.151615
 C        -0.565488         1.470900        -1.227240
 O        -2.764553         2.743815         1.404550
 C        -1.745151         2.232545         2.289580
 C        -0.785392         1.962301         1.055387
 H         0.481858        -0.388247         1.251754
 H        -2.718481         0.161461        -0.625412
 H        -2.692825         0.178781         1.159422
 H        -2.586957         2.056533        -1.815009
 H        -1.412467         3.448522        -1.415204
 H        -0.508034         0.583723        -1.938462
 H         0.347116         2.131157        -1.189232
 H        -1.319920         2.984613         3.058054
 H        -2.127006         1.350503         2.744119
 H        -0.039557         2.816491         0.951645
