19
Iteration:  4969
 O         0.147205        -0.408660         0.289266
 C        -0.577274         0.737761         0.179824
 C        -2.109345         0.592317         0.223446
 C        -2.045638         2.062354         0.282081
 C        -1.793929         2.469004        -1.154171
 C        -0.427014         1.722750        -1.142787
 O        -2.860353         2.671372         1.310022
 C        -1.890238         2.360490         2.308219
 C        -0.766781         1.919536         1.142023
 H         1.100931        -0.368771         0.161418
 H        -2.723746         0.087709        -0.482669
 H        -2.438911         0.374010         1.270428
 H        -2.525218         2.142385        -1.916094
 H        -1.513433         3.533361        -1.108763
 H        -0.408269         1.168672        -2.156896
 H         0.435550         2.377539        -1.295419
 H        -1.502723         3.293413         2.882022
 H        -2.236097         1.626797         3.012932
 H        -0.044150         2.822456         1.116281
