19
Iteration:   994
 O         0.442524        -0.201251         0.373117
 C        -0.652249         0.734979         0.180651
 C        -2.220933         0.462076         0.388008
 C        -2.152758         2.063397         0.289532
 C        -1.806825         2.354012        -1.190504
 C        -0.621727         1.415402        -1.245045
 O        -2.754229         2.830871         1.334975
 C        -1.743860         2.444455         2.274244
 C        -0.852008         2.088559         1.025293
 H         0.096985        -1.043009         0.063838
 H        -2.722669        -0.124953        -0.414795
 H        -2.507122        -0.039136         1.349918
 H        -2.645322         2.245416        -1.927091
 H        -1.466278         3.354501        -1.118006
 H        -0.636178         0.650862        -2.082002
 H         0.255092         1.957277        -1.465547
 H        -1.395342         3.354903         2.903116
 H        -1.916936         1.655588         3.039407
 H        -0.045750         2.812759         0.794992
