19
Iteration:  1391charge 0 multiplicity 1
 O         0.298982        -0.156009         0.518240
 C        -0.702277         0.811777         0.203326
 C        -2.203755         0.478805         0.260116
 C        -2.190473         2.075286         0.230242
 C        -1.894983         2.434007        -1.235477
 C        -0.567892         1.410588        -1.230403
 O        -2.779503         2.814056         1.401838
 C        -1.597929         2.300818         2.192677
 C        -0.741691         2.033815         1.031092
 H         0.039936        -1.056780         0.268087
 H        -2.593288        -0.107110        -0.567579
 H        -2.380316         0.070209         1.249331
 H        -2.660931         2.330802        -1.977383
 H        -1.474166         3.480286        -1.104668
 H        -0.570939         0.611819        -1.920526
 H         0.472402         1.892643        -1.324488
 H        -1.162036         3.091042         2.775920
 H        -1.864251         1.462745         2.824873
 H         0.086102         2.809247         0.779902
