19
Iteration:  1200
 O         0.388651        -0.249255         0.368482
 C        -0.629434         0.713050         0.216493
 C        -2.100066         0.473394         0.231629
 C        -2.138039         2.072353         0.260358
 C        -1.863506         2.443519        -1.073201
 C        -0.684110         1.363196        -1.229776
 O        -2.893621         2.881900         1.302765
 C        -1.644323         2.435674         2.328621
 C        -0.735705         2.046589         1.030568
 H         0.161694        -1.106891         0.811886
 H        -2.575521         0.000037        -0.693132
 H        -2.560698         0.059950         1.153182
 H        -2.664415         2.294214        -1.861272
 H        -1.396171         3.412118        -1.078025
 H        -0.823148         0.513923        -2.020264
 H         0.185778         1.833134        -1.585725
 H        -1.400662         3.429694         2.704517
 H        -1.852062         1.757448         3.104674
 H        -0.031285         2.762543         0.686285
