19
Iteration:  2394charge 0 multiplicity 1
 O         0.240537        -0.370021         0.183633
 C        -0.583932         0.703026         0.237312
 C        -2.139004         0.581609         0.415280
 C        -2.187512         2.114705         0.363768
 C        -1.870700         2.391173        -1.147108
 C        -0.690702         1.358070        -1.237022
 O        -2.806341         2.760807         1.351544
 C        -1.689617         2.523627         2.292863
 C        -0.674747         2.114002         0.973107
 H         1.001159        -0.139934         0.766486
 H        -2.375413        -0.005305        -0.425653
 H        -2.556097         0.219399         1.375986
 H        -2.664579         2.107823        -1.861350
 H        -1.451412         3.321107        -1.474909
 H        -0.878901         0.558387        -1.956529
 H         0.261330         1.949895        -1.366939
 H        -1.152052         3.323393         2.811147
 H        -1.895921         1.728280         3.001251
 H         0.209968         2.891027         0.921611
