19
Iteration:  1463charge 0 multiplicity 1
 O         0.383653        -0.232535         0.362162
 C        -0.644896         0.672084         0.155057
 C        -2.178073         0.413986         0.357142
 C        -2.106626         2.116451         0.344119
 C        -1.900315         2.473066        -1.067389
 C        -0.531932         1.386661        -1.180153
 O        -2.814269         2.879009         1.276352
 C        -1.691346         2.449266         2.198011
 C        -0.802935         2.041779         0.999173
 H         0.156530        -1.156252         0.083754
 H        -2.870679         0.008793        -0.437640
 H        -2.365065         0.166591         1.386297
 H        -2.666544         2.168416        -1.806581
 H        -1.607705         3.530362        -1.119769
 H        -0.807222         0.573713        -1.961132
 H         0.413652         1.829523        -1.447359
 H        -1.433429         3.196713         3.086256
 H        -2.149427         1.550001         2.694794
 H        -0.080675         2.803047         0.771331
