19
Iteration:  3256charge 0 multiplicity 1
 O         0.376135        -0.294188         0.222117
 C        -0.596455         0.739133         0.132233
 C        -2.212007         0.544678         0.346705
 C        -2.074634         2.226735         0.294047
 C        -1.720782         2.580379        -1.160202
 C        -0.634568         1.373244        -1.260412
 O        -2.876025         2.798002         1.386499
 C        -1.757991         2.216422         2.302321
 C        -0.812166         2.044428         1.080664
 H         0.163321        -0.658145         1.108391
 H        -2.787102         0.040579        -0.389350
 H        -2.550704         0.356907         1.411839
 H        -2.462946         2.308554        -1.889501
 H        -1.321859         3.542116        -1.220779
 H        -0.779849         0.607375        -2.036414
 H         0.408794         1.748826        -1.415585
 H        -1.445998         2.879877         3.142582
 H        -2.108005         1.259269         2.842996
 H         0.007154         2.803756         1.011645
