19
Iteration:  2181
 O         0.217520        -0.313492         0.394644
 C        -0.560848         0.741058         0.139068
 C        -2.107356         0.472522         0.311261
 C        -2.118782         2.076063         0.323132
 C        -1.860141         2.372736        -1.187334
 C        -0.650918         1.406572        -1.396142
 O        -2.777630         2.753433         1.442986
 C        -1.559488         2.516074         2.267888
 C        -0.863427         2.166053         1.046691
 H         0.092495        -0.632264         1.293415
 H        -2.682404         0.102617        -0.652117
 H        -2.510186         0.097344         1.275666
 H        -2.647024         2.203247        -1.927643
 H        -1.490715         3.463295        -1.209419
 H        -0.954460         0.557956        -2.011561
 H         0.341025         1.817337        -1.683074
 H        -1.419587         3.490896         2.818807
 H        -1.709937         1.711025         2.987449
 H         0.015097         2.781023         0.789240
