19
Iteration:  2873
 O         0.349385        -0.293547         0.265483
 C        -0.606046         0.733651         0.138411
 C        -2.086911         0.470467         0.409857
 C        -2.124249         2.073684         0.365380
 C        -1.817768         2.451281        -1.215701
 C        -0.708118         1.363394        -1.390015
 O        -2.749930         2.884688         1.377829
 C        -1.828161         2.395003         2.342290
 C        -0.734214         2.089693         1.083630
 H         0.037477        -0.782282         1.054833
 H        -2.759677        -0.075801        -0.336329
 H        -2.058302         0.073147         1.356650
 H        -2.682833         2.405576        -1.959951
 H        -1.351917         3.477283        -1.231234
 H        -1.063886         0.561801        -2.008155
 H         0.276205         1.786254        -1.801778
 H        -1.545196         3.327242         2.895150
 H        -2.118973         1.609254         2.991964
 H        -0.032830         2.882194         1.071853
