19
Iteration:  3335
 O         0.170346        -0.303715         0.416649
 C        -0.692210         0.734840         0.194779
 C        -2.174475         0.516562         0.228833
 C        -2.118178         2.146527         0.303523
 C        -1.792770         2.577559        -1.110821
 C        -0.556340         1.517562        -1.217807
 O        -2.811544         2.740089         1.363383
 C        -1.651152         2.221852         2.263181
 C        -0.757576         1.992114         1.016306
 H         1.014504         0.145262         0.189815
 H        -2.664524         0.041181        -0.666134
 H        -2.409532        -0.159102         0.961322
 H        -2.488953         2.553934        -1.966016
 H        -1.465334         3.576802        -1.127133
 H        -0.500807         0.813869        -2.106934
 H         0.393554         2.023400        -1.154455
 H        -1.346029         3.133149         2.834040
 H        -1.948774         1.323981         2.819651
 H        -0.003574         2.721645         0.744265
