19
Iteration:  2872charge 0 multiplicity 1
 O         0.354683        -0.290006         0.270654
 C        -0.607941         0.729904         0.130314
 C        -2.086716         0.471595         0.411301
 C        -2.122470         2.077079         0.372520
 C        -1.824000         2.454217        -1.224744
 C        -0.710217         1.366476        -1.386771
 O        -2.751833         2.887392         1.374692
 C        -1.822398         2.390530         2.342297
 C        -0.737987         2.091490         1.094005
 H         0.025486        -0.814500         1.036196
 H        -2.743531        -0.089052        -0.332858
 H        -2.075530         0.047458         1.338990
 H        -2.647254         2.390167        -1.979184
 H        -1.333884         3.466411        -1.227095
 H        -1.118229         0.562047        -2.005614
 H         0.270505         1.765142        -1.796811
 H        -1.541812         3.315224         2.839770
 H        -2.112001         1.594856         2.977145
 H        -0.002936         2.878713         1.089767
