19
Iteration:  1951charge 0 multiplicity 1
 O         0.272959        -0.264208         0.452845
 C        -0.664749         0.758823         0.144483
 C        -2.243140         0.490952         0.311754
 C        -2.083745         2.066403         0.280904
 C        -1.895818         2.428478        -1.127584
 C        -0.682422         1.394731        -1.287964
 O        -2.734330         2.740651         1.353799
 C        -1.567183         2.470486         2.245128
 C        -0.742764         2.088809         0.957359
 H         0.017865        -0.584044         1.318310
 H        -2.612324        -0.147738        -0.531178
 H        -2.492566        -0.033318         1.266751
 H        -2.717054         2.305760        -1.864849
 H        -1.525875         3.449863        -1.146375
 H        -0.807067         0.632199        -2.066320
 H         0.234204         1.953079        -1.534076
 H        -1.010904         3.356014         2.632490
 H        -1.779511         1.885782         3.127112
 H         0.053243         2.819819         0.738194
