19
Iteration:  3942
 O         0.271771        -0.307628         0.380226
 C        -0.640649         0.710893         0.104466
 C        -2.128765         0.609486         0.309228
 C        -2.141001         2.139025         0.307443
 C        -1.763605         2.587594        -1.176735
 C        -0.498260         1.522533        -1.303803
 O        -2.883893         2.670947         1.437779
 C        -1.781542         2.304984         2.301732
 C        -0.760156         2.010530         1.017855
 H        -0.030790        -1.238105         0.344616
 H        -2.649057         0.007073        -0.434627
 H        -2.268703         0.286415         1.387977
 H        -2.529576         2.368190        -1.991430
 H        -1.271655         3.547516        -1.332779
 H        -0.509874         0.790686        -2.112033
 H         0.425773         2.063877        -1.296168
 H        -1.383155         3.150821         3.045715
 H        -1.942251         1.361606         2.822965
 H        -0.063979         2.874295         0.895220
