19
Iteration:   138
 O         0.303527        -0.198816         0.584814
 C        -0.654846         0.774787         0.230048
 C        -2.095694         0.422577         0.255847
 C        -2.172897         2.043057         0.305679
 C        -1.951764         2.383525        -1.190415
 C        -0.719513         1.346102        -1.305114
 O        -2.776944         2.798179         1.380317
 C        -1.498225         2.492067         2.226300
 C        -0.786008         2.093241         0.965696
 H         0.629103        -0.707868        -0.187961
 H        -2.458609        -0.149228        -0.636451
 H        -2.277804         0.038874         1.234154
 H        -2.926451         2.311738        -1.774198
 H        -1.605677         3.406497        -1.274763
 H        -0.980045         0.438652        -1.999626
 H         0.109096         1.905936        -1.754661
 H        -1.185782         3.505637         2.623031
 H        -1.648695         1.687677         3.013896
 H        -0.114334         2.956210         0.610344
