19
Iteration:  4855charge 0 multiplicity 1
 O         0.201000        -0.318358         0.339710
 C        -0.682179         0.790784         0.112261
 C        -2.201760         0.585675         0.164380
 C        -2.188620         2.173017         0.270771
 C        -1.684261         2.471144        -1.177203
 C        -0.420544         1.536166        -1.164224
 O        -2.844686         2.691661         1.472886
 C        -1.751233         2.241660         2.278111
 C        -0.837519         2.025308         1.066521
 H         0.970695        -0.123198         0.925435
 H        -2.758302        -0.085021        -0.646986
 H        -2.307064         0.041025         1.084047
 H        -2.486315         2.207727        -1.915410
 H        -1.230892         3.468727        -1.433867
 H        -0.226040         0.945097        -2.131319
 H         0.489551         2.167437        -1.002165
 H        -1.419855         3.102927         2.803319
 H        -2.070375         1.319125         2.875282
 H        -0.062364         2.740370         0.971030
