19
Iteration:  3299
 O         0.211704        -0.420226         0.290221
 C        -0.678779         0.666964         0.130885
 C        -2.122677         0.490067         0.205946
 C        -2.143564         2.100221         0.320706
 C        -1.839870         2.567943        -1.136519
 C        -0.489240         1.616023        -1.206797
 O        -2.834085         2.753263         1.366185
 C        -1.682441         2.430335         2.317825
 C        -0.796558         1.926044         1.098694
 H         0.922652        -0.224200         0.925963
 H        -2.540061         0.147905        -0.711157
 H        -2.379612        -0.116729         1.151881
 H        -2.691616         2.258968        -1.719946
 H        -1.505099         3.548645        -1.366100
 H        -0.514821         1.038017        -2.140447
 H         0.451401         2.212917        -1.218221
 H        -1.304168         3.349156         2.815401
 H        -2.050769         1.814016         3.190666
 H         0.018193         2.706386         0.934230
