19
Iteration:  4766charge 0 multiplicity 1
 O         0.386789        -0.156926         0.422947
 C        -0.708006         0.722463         0.240859
 C        -2.260372         0.627172         0.215413
 C        -2.090221         2.189841         0.232167
 C        -1.630546         2.589746        -1.153606
 C        -0.575541         1.435032        -1.232325
 O        -2.896730         2.697922         1.435178
 C        -1.748139         2.150804         2.232131
 C        -0.795595         1.969565         0.991282
 H         0.183547        -1.091452         0.469235
 H        -2.572992         0.141576        -0.797189
 H        -2.661765         0.206268         1.136686
 H        -2.552781         2.591430        -1.745116
 H        -1.281584         3.635120        -1.346255
 H        -0.936289         0.653171        -1.851264
 H         0.527660         1.776327        -1.357532
 H        -1.381473         2.957856         2.840238
 H        -2.067736         1.250816         2.823650
 H         0.023544         2.659159         0.928496
