19
Iteration:   330charge 0 multiplicity 1
 O         0.403273        -0.226552         0.302922
 C        -0.621608         0.704153         0.191798
 C        -2.093587         0.473155         0.592251
 C        -2.198841         2.032167         0.363816
 C        -2.023837         2.239965        -1.131117
 C        -0.708364         1.376090        -1.193815
 O        -2.753258         3.020756         1.198630
 C        -1.618946         2.469972         2.229305
 C        -0.699523         2.070158         0.942398
 H         0.152085        -1.045311        -0.195271
 H        -2.637333        -0.287905        -0.045353
 H        -2.346893         0.152394         1.626861
 H        -2.860102         2.004472        -1.833438
 H        -1.785844         3.328936        -1.295688
 H        -0.741155         0.625606        -1.961632
 H         0.269610         1.889360        -1.440888
 H        -1.183936         3.259201         2.912948
 H        -2.123565         1.725573         2.838929
 H        -0.139426         2.909479         0.569224
