19
Iteration:  4492
 O         0.292435        -0.254942         0.389785
 C        -0.687587         0.725694         0.214620
 C        -2.248695         0.566167         0.248819
 C        -2.123223         2.200663         0.260944
 C        -1.811030         2.521232        -1.175118
 C        -0.560177         1.513666        -1.244569
 O        -2.759108         2.749864         1.391381
 C        -1.674783         2.192373         2.218506
 C        -0.798863         1.977967         1.052696
 H         0.495382        -0.612552         1.256732
 H        -2.622979         0.099099        -0.646999
 H        -2.617709         0.062777         1.207972
 H        -2.453908         2.168977        -1.982213
 H        -1.451308         3.568207        -1.348088
 H        -0.557167         0.915346        -2.142054
 H         0.343093         2.224768        -1.332367
 H        -1.431846         2.937292         2.961335
 H        -1.932743         1.280767         2.838099
 H        -0.034269         2.710361         0.914581
