19
Iteration:  2005charge 0 multiplicity 1
 O         0.340185        -0.224486         0.187127
 C        -0.722731         0.671466         0.209503
 C        -2.204891         0.544610         0.501049
 C        -2.049009         2.133296         0.336313
 C        -1.855556         2.365285        -1.183889
 C        -0.674115         1.337983        -1.297777
 O        -2.722041         2.902538         1.288649
 C        -1.808269         2.428978         2.268407
 C        -0.660626         2.006127         1.122446
 H         0.594349        -0.729904         0.955156
 H        -2.929797         0.049433        -0.193613
 H        -2.258191         0.268475         1.590076
 H        -2.630919         1.916126        -1.822934
 H        -1.580738         3.375975        -1.482382
 H        -0.714637         0.540897        -2.038469
 H         0.227694         1.943959        -1.415966
 H        -1.523519         3.314842         2.880306
 H        -2.044047         1.531177         2.759710
 H         0.094147         2.739764         0.812733
