19
Iteration:  2665
 O         0.201233        -0.349306         0.386824
 C        -0.603591         0.804842         0.115968
 C        -2.097285         0.522735         0.389511
 C        -2.169146         2.097324         0.321533
 C        -1.887109         2.321702        -1.162254
 C        -0.633997         1.384128        -1.304250
 O        -2.832834         2.763622         1.468248
 C        -1.534215         2.459615         2.258040
 C        -0.727735         2.249855         0.946880
 H        -0.314456        -1.115380         0.096259
 H        -2.622980         0.118111        -0.543013
 H        -2.142793         0.212736         1.462748
 H        -2.554484         1.703476        -1.865556
 H        -1.719905         3.352291        -1.590521
 H        -0.767254         0.678066        -2.130454
 H         0.175324         2.102767        -1.484972
 H        -1.209792         3.329950         2.866253
 H        -1.491381         1.551519         2.939719
 H         0.007950         3.003696         0.928160
