19
Iteration:  4604
 O         0.281944        -0.239339         0.504508
 C        -0.702946         0.791066         0.202393
 C        -2.269285         0.585493         0.115002
 C        -2.078295         2.160676         0.298100
 C        -1.782500         2.437145        -1.200305
 C        -0.526559         1.552778        -1.250946
 O        -2.850094         2.646639         1.455599
 C        -1.618537         2.247901         2.280307
 C        -0.707978         2.067157         1.056410
 H        -0.219601        -0.968363         0.106641
 H        -2.680252         0.275497        -0.916880
 H        -2.856670         0.211562         0.948079
 H        -2.555324         2.086443        -1.933529
 H        -1.630215         3.496227        -1.652226
 H        -0.599613         0.808843        -2.091314
 H         0.522618         1.940654        -1.291047
 H        -1.377818         3.022272         3.001918
 H        -1.684728         1.207968         2.846267
 H        -0.171843         2.943488         0.761672
