19
Iteration:  4425charge 0 multiplicity 1
 O         0.371140        -0.268398         0.184296
 C        -0.712425         0.683940         0.269775
 C        -2.168447         0.599462         0.264607
 C        -2.119288         2.221651         0.278306
 C        -1.727142         2.534720        -1.207869
 C        -0.584047         1.438220        -1.149107
 O        -2.834139         2.693054         1.390634
 C        -1.764642         2.343711         2.247459
 C        -0.801728         1.997540         1.096553
 H         0.122968        -1.092791         0.666891
 H        -2.817748         0.070764        -0.448201
 H        -2.555169         0.314458         1.290745
 H        -2.612461         2.323932        -1.813373
 H        -1.176254         3.431843        -1.282533
 H        -0.808353         0.669278        -1.912780
 H         0.528696         1.731907        -1.095430
 H        -1.423380         3.274395         2.851506
 H        -1.952255         1.589118         3.042992
 H         0.054759         2.709930         1.033721
