19
Iteration:  1957charge 0 multiplicity 1
 O         0.280737        -0.242420         0.413339
 C        -0.651785         0.731726         0.133812
 C        -2.226293         0.442756         0.297024
 C        -2.063940         2.069646         0.297221
 C        -1.884257         2.390758        -1.137909
 C        -0.694969         1.376317        -1.257595
 O        -2.748046         2.808755         1.392010
 C        -1.600068         2.515607         2.219343
 C        -0.729281         2.090202         0.953668
 H        -0.034792        -0.672356         1.246572
 H        -2.476520        -0.118754        -0.576087
 H        -2.579634         0.032356         1.233231
 H        -2.783297         2.231089        -1.731428
 H        -1.502598         3.425437        -1.152554
 H        -0.865646         0.666755        -2.075845
 H         0.252897         1.893909        -1.398918
 H        -1.100572         3.242948         2.896341
 H        -1.884298         1.710614         3.010917
 H         0.080450         2.771722         0.729028
