19
Iteration:  3938charge 0 multiplicity 1
 O         0.252482        -0.278139         0.394392
 C        -0.647931         0.748531         0.090031
 C        -2.114677         0.628441         0.307538
 C        -2.112564         2.139181         0.269074
 C        -1.790619         2.558386        -1.182605
 C        -0.520714         1.500295        -1.267841
 O        -2.830996         2.665535         1.441429
 C        -1.783397         2.275851         2.293122
 C        -0.775638         2.003088         1.043348
 H         0.065748        -1.209850         0.192355
 H        -2.664834        -0.032233        -0.437632
 H        -2.388351         0.247904         1.297221
 H        -2.530736         2.396306        -1.927954
 H        -1.150489         3.527009        -1.390733
 H        -0.517193         0.799332        -2.077336
 H         0.339704         2.191808        -1.286197
 H        -1.515606         3.119761         2.854947
 H        -2.012527         1.411916         2.949639
 H        -0.006360         2.750871         0.961960
