19
Iteration:  1393charge 0 multiplicity 1
 O         0.301017        -0.164678         0.517933
 C        -0.701599         0.814592         0.201562
 C        -2.205583         0.487342         0.258015
 C        -2.191611         2.084022         0.247782
 C        -1.886268         2.412931        -1.236795
 C        -0.554105         1.414843        -1.238270
 O        -2.788115         2.794721         1.403372
 C        -1.593426         2.318352         2.189937
 C        -0.739907         2.055224         1.030986
 H        -0.017529        -1.067109         0.261757
 H        -2.615479        -0.033925        -0.589352
 H        -2.447978         0.055656         1.251217
 H        -2.658596         2.406243        -2.018112
 H        -1.495604         3.407850        -1.074538
 H        -0.579465         0.586680        -1.898597
 H         0.442155         1.927209        -1.336817
 H        -1.133899         3.027265         2.787098
 H        -1.868414         1.441895         2.877848
 H         0.055938         2.774667         0.703894
