19
Iteration:  1428
 O         0.275082        -0.302000         0.465740
 C        -0.663710         0.751292         0.164264
 C        -2.058835         0.543839         0.292826
 C        -2.094967         2.157269         0.276755
 C        -1.870417         2.507615        -1.234626
 C        -0.539767         1.397298        -1.272853
 O        -2.888092         2.621066         1.420415
 C        -1.658051         2.486849         2.234043
 C        -0.740229         2.096000         1.055323
 H        -0.259727        -1.099884         0.210463
 H        -2.700618        -0.089894        -0.345821
 H        -2.383267         0.245514         1.319150
 H        -2.661299         2.382211        -2.043945
 H        -1.633870         3.528208        -1.367033
 H        -0.812523         0.514917        -1.954338
 H         0.359879         1.826430        -1.651693
 H        -1.297664         3.446249         2.594293
 H        -1.946939         1.720588         3.099306
 H         0.078211         2.783681         0.917026
