19
Iteration:  2121
 O         0.349245        -0.235479         0.194438
 C        -0.584802         0.745745         0.167559
 C        -2.177434         0.469098         0.468186
 C        -2.154556         2.087482         0.365953
 C        -1.902318         2.369232        -1.155199
 C        -0.646630         1.340977        -1.231522
 O        -2.699146         2.956430         1.296722
 C        -1.760272         2.413453         2.251555
 C        -0.740869         1.998104         1.046723
 H         0.236596        -0.528710         1.128052
 H        -2.769494         0.002176        -0.233575
 H        -2.468164         0.117380         1.445631
 H        -2.612787         2.093980        -1.967763
 H        -1.575972         3.360907        -1.303783
 H        -0.820458         0.494289        -1.942222
 H         0.249544         1.830483        -1.597470
 H        -1.415530         3.320535         2.816496
 H        -2.232955         1.589854         2.910725
 H         0.037223         2.747423         1.054307
