19
Iteration:  1634charge 0 multiplicity 1
 O         0.366782        -0.240481         0.509444
 C        -0.596009         0.740618         0.197843
 C        -2.202445         0.572684         0.325330
 C        -2.146016         2.106858         0.292472
 C        -1.894049         2.396478        -1.215377
 C        -0.656805         1.386194        -1.281847
 O        -2.753782         2.842070         1.368080
 C        -1.679510         2.335693         2.238692
 C        -0.747722         2.075535         0.967838
 H         0.068813        -1.087785         0.130708
 H        -2.803574         0.083639        -0.446188
 H        -2.411303         0.154639         1.280443
 H        -2.758973         2.353875        -1.944408
 H        -1.503782         3.353316        -1.286663
 H        -0.643580         0.520373        -1.986248
 H         0.202854         2.000869        -1.484570
 H        -1.492074         3.016273         3.014410
 H        -1.845824         1.327397         2.759882
 H        -0.123848         2.936707         0.767198
