19
Iteration:  4161
 O         0.257918        -0.218355         0.249387
 C        -0.711963         0.729966         0.214020
 C        -2.213899         0.560696         0.240551
 C        -2.119151         2.147773         0.305170
 C        -1.707135         2.465142        -1.187695
 C        -0.559214         1.496336        -1.209040
 O        -2.803424         2.769001         1.361834
 C        -1.727941         2.215921         2.300102
 C        -0.792138         2.033489         1.142277
 H         0.607467        -0.293521         1.147798
 H        -2.528291         0.054254        -0.696954
 H        -2.692477         0.079013         1.144390
 H        -2.520167         2.340817        -2.030826
 H        -1.298346         3.434684        -1.381396
 H        -0.633113         0.673457        -1.910133
 H         0.389742         1.789321        -1.386589
 H        -1.254560         2.858567         3.127529
 H        -1.920612         1.305951         2.754618
 H        -0.030633         2.805187         0.921600
