19
Iteration:  3924charge 0 multiplicity 1
 O         0.262115        -0.206694         0.432491
 C        -0.658171         0.804733         0.215891
 C        -2.205029         0.540546         0.197226
 C        -2.061026         2.168650         0.276599
 C        -1.778010         2.480805        -1.177972
 C        -0.602482         1.515546        -1.209284
 O        -2.800372         2.702208         1.339348
 C        -1.689672         2.207026         2.273842
 C        -0.752494         1.984743         1.104315
 H         0.012292        -0.713281        -0.363822
 H        -2.717266         0.205997        -0.691001
 H        -2.513326         0.204344         1.162961
 H        -2.640483         2.220736        -1.824297
 H        -1.666819         3.544909        -1.230679
 H        -0.703095         0.753711        -2.089370
 H         0.439513         1.949730        -1.328401
 H        -1.238556         2.988869         2.856748
 H        -2.075556         1.433117         2.985577
 H         0.099655         2.706427         1.149495
