19
Iteration:  1132
 O         0.328387        -0.293873         0.308493
 C        -0.590868         0.728758         0.243297
 C        -2.129373         0.590002         0.280681
 C        -2.098379         2.098099         0.329684
 C        -1.876794         2.346590        -1.176327
 C        -0.573425         1.393546        -1.258059
 O        -2.810431         2.817828         1.359628
 C        -1.741670         2.374822         2.289745
 C        -0.788159         2.142408         0.996946
 H         0.347179        -0.572516         1.246988
 H        -2.706428         0.015992        -0.450014
 H        -2.600074         0.347213         1.259519
 H        -2.715354         1.910613        -1.701664
 H        -1.694195         3.458290        -1.397820
 H        -0.676052         0.637132        -2.031630
 H         0.418367         1.817302        -1.594140
 H        -1.489074         3.152391         2.898707
 H        -2.054892         1.443089         2.843438
 H        -0.108347         2.965147         0.898110
