19
Iteration:  2086charge 0 multiplicity 1
 O         0.329342        -0.273128         0.423772
 C        -0.651646         0.792603         0.182574
 C        -2.196554         0.543826         0.380974
 C        -2.126619         2.139726         0.274624
 C        -1.928113         2.395155        -1.242215
 C        -0.654080         1.356397        -1.281802
 O        -2.735203         2.754966         1.414111
 C        -1.608622         2.389654         2.239099
 C        -0.726744         2.136556         0.962222
 H        -0.063769        -0.759228         1.183577
 H        -2.748815         0.217931        -0.500025
 H        -2.709623         0.147954         1.233760
 H        -2.663438         2.140029        -2.011123
 H        -1.636756         3.457816        -1.438806
 H        -0.879713         0.454810        -1.906074
 H         0.259566         1.834067        -1.668880
 H        -1.265904         3.141323         2.946167
 H        -1.817323         1.427591         2.832924
 H         0.154264         2.831311         0.875177
