19
Iteration:  3811charge 0 multiplicity 1
 O         0.140917        -0.298886         0.360556
 C        -0.683323         0.791360         0.072711
 C        -2.199001         0.472664         0.235827
 C        -2.114278         2.076542         0.337383
 C        -1.756652         2.485558        -1.165165
 C        -0.499254         1.575188        -1.212281
 O        -2.792795         2.706147         1.370263
 C        -1.656834         2.318625         2.289908
 C        -0.796540         1.953656         1.047160
 H         0.864056        -0.036984         0.952830
 H        -2.737170         0.030980        -0.594356
 H        -2.409933         0.099697         1.241030
 H        -2.632652         2.442851        -1.859418
 H        -1.450186         3.464291        -1.177656
 H        -0.357220         0.972171        -2.146669
 H         0.390540         2.267912        -1.161880
 H        -1.265487         3.255257         2.846644
 H        -1.830964         1.622127         3.101699
 H        -0.259667         2.916233         0.970723
