19
Iteration:  3745
 O         0.250026        -0.272863         0.325603
 C        -0.593710         0.818455         0.128395
 C        -2.197004         0.585080         0.320161
 C        -2.059990         2.116357         0.333407
 C        -1.707485         2.516580        -1.056105
 C        -0.605532         1.437857        -1.301305
 O        -2.865797         2.767130         1.354704
 C        -1.821661         2.245242         2.211112
 C        -0.722260         1.971628         1.170643
 H         1.106579        -0.279030        -0.139573
 H        -2.825844         0.189068        -0.519717
 H        -2.419962         0.051534         1.224277
 H        -2.474757         2.442031        -1.896011
 H        -1.357992         3.499079        -1.153811
 H        -0.962161         0.601069        -1.983024
 H         0.459046         1.730007        -1.731287
 H        -1.545709         3.017676         3.008127
 H        -2.191038         1.349430         2.744872
 H        -0.028988         2.842778         1.028529
