19
Iteration:  1016
 O         0.273332        -0.287202         0.397276
 C        -0.622293         0.705950         0.171381
 C        -2.040353         0.480378         0.422787
 C        -2.164968         2.048788         0.355494
 C        -1.912752         2.431032        -1.177418
 C        -0.519822         1.577191        -1.212103
 O        -2.885688         2.810738         1.301310
 C        -1.644415         2.443323         2.144249
 C        -0.757328         2.012921         0.996973
 H        -0.250678        -1.121793         0.490510
 H        -2.580950        -0.269852        -0.214309
 H        -2.246720         0.108125         1.460774
 H        -2.712152         1.880102        -1.750474
 H        -1.818896         3.448388        -1.446527
 H        -0.334621         0.920029        -2.112754
 H         0.366521         2.132067        -1.214951
 H        -1.277275         3.313410         2.832654
 H        -1.912899         1.639904         2.852475
 H        -0.072090         2.828772         0.645384
