19
Iteration:  1519
 O         0.295557        -0.251738         0.573523
 C        -0.640423         0.750177         0.165383
 C        -2.107568         0.601592         0.329416
 C        -2.128418         2.193930         0.316299
 C        -1.871606         2.399591        -1.172699
 C        -0.707581         1.345019        -1.296688
 O        -2.880806         2.770238         1.391953
 C        -1.640552         2.272994         2.137657
 C        -0.668701         2.106096         0.962052
 H         0.685050        -0.770014        -0.151959
 H        -2.678859         0.091621        -0.501792
 H        -2.458049         0.139642         1.265039
 H        -2.559149         2.337381        -1.982190
 H        -1.430415         3.447801        -1.342363
 H        -0.761902         0.600882        -2.127400
 H         0.271570         1.905732        -1.332053
 H        -1.257858         3.173313         2.863944
 H        -1.995533         1.551254         2.857269
 H         0.141505         2.841171         0.855340
