19
Iteration:  4117charge 0 multiplicity 1
 O         0.305563        -0.326205         0.203394
 C        -0.608725         0.729776         0.186767
 C        -2.151493         0.471172         0.243631
 C        -2.079507         2.032135         0.354799
 C        -1.738421         2.474518        -1.056212
 C        -0.553989         1.534897        -1.224887
 O        -2.828728         2.861233         1.316935
 C        -1.787550         2.351987         2.271921
 C        -0.797178         2.039769         1.131091
 H         0.040401        -0.872059         0.961011
 H        -2.708780         0.091643        -0.648906
 H        -2.577530        -0.075270         1.166926
 H        -2.598458         2.280683        -1.847869
 H        -1.555840         3.533130        -1.109721
 H        -0.613726         0.947495        -2.133499
 H         0.293332         2.090363        -1.382281
 H        -1.702949         3.124183         3.123721
 H        -2.194335         1.570391         2.824904
 H         0.016938         2.784641         0.966326
