19
Iteration:  2601charge 0 multiplicity 1
 O         0.399640        -0.151023         0.448055
 C        -0.625361         0.724409         0.146838
 C        -2.168260         0.503208         0.404391
 C        -2.193773         2.067642         0.273033
 C        -1.870647         2.441154        -1.141213
 C        -0.816055         1.237450        -1.315699
 O        -2.666419         2.943297         1.404237
 C        -1.652177         2.349532         2.235119
 C        -0.781647         2.015361         0.974028
 H         0.678982        -0.598273        -0.366349
 H        -2.764403        -0.109239        -0.404264
 H        -2.489106         0.237334         1.454377
 H        -2.749454         2.325758        -1.837247
 H        -1.522361         3.486663        -1.067259
 H        -1.187222         0.476741        -1.992298
 H         0.125381         1.705890        -1.800233
 H        -1.249885         3.207250         2.869416
 H        -1.958526         1.486780         2.879346
 H         0.105813         2.694121         0.855381
