19
Iteration:   309
 O         0.348297        -0.266295         0.346888
 C        -0.655538         0.701979         0.162729
 C        -2.146612         0.505952         0.612102
 C        -2.159250         2.010047         0.337837
 C        -1.964253         2.270286        -1.124861
 C        -0.651795         1.480934        -1.275815
 O        -2.779622         2.815794         1.295353
 C        -1.591626         2.603033         2.068114
 C        -0.694298         2.050128         0.985897
 H        -0.159932        -1.077971         0.209367
 H        -2.971479        -0.122106         0.121021
 H        -2.150266         0.084980         1.624584
 H        -2.840292         1.799805        -1.671613
 H        -1.985447         3.350006        -1.341610
 H        -0.529131         0.841634        -2.120421
 H         0.171412         2.254133        -1.353484
 H        -1.200162         3.530923         2.565804
 H        -1.718360         1.928715         2.898357
 H         0.070704         2.797128         0.734908
