19
Iteration:  2310charge 0 multiplicity 1
 O         0.213652        -0.282771         0.481807
 C        -0.624506         0.775036         0.154291
 C        -2.161648         0.578513         0.280632
 C        -2.124845         2.105050         0.332068
 C        -1.877988         2.355682        -1.217648
 C        -0.652222         1.339644        -1.306780
 O        -2.813536         2.763074         1.472435
 C        -1.510329         2.419931         2.260206
 C        -0.802399         2.136846         1.001726
 H         0.652271        -0.618145        -0.311868
 H        -2.715624         0.035278        -0.497332
 H        -2.537424        -0.010344         1.108833
 H        -2.751827         2.131499        -1.832851
 H        -1.457750         3.376060        -1.498474
 H        -0.571172         0.601178        -2.091897
 H         0.282763         1.973380        -1.571655
 H        -1.102938         3.387635         2.826715
 H        -1.614495         1.598679         3.024304
 H        -0.125166         2.957697         0.674779
