19
Iteration:  2187charge 0 multiplicity 1
 O         0.205605        -0.290183         0.447109
 C        -0.579687         0.748862         0.104602
 C        -2.107615         0.488049         0.346066
 C        -2.095461         2.095256         0.289167
 C        -1.880933         2.419098        -1.164032
 C        -0.657298         1.382606        -1.345330
 O        -2.775066         2.723509         1.401043
 C        -1.609093         2.467718         2.303416
 C        -0.763349         2.161013         0.927335
 H        -0.092179        -0.709250         1.267177
 H        -2.618018         0.125680        -0.476517
 H        -2.546268        -0.001970         1.221715
 H        -2.793268         2.239245        -1.778824
 H        -1.483221         3.384871        -1.294257
 H        -0.930588         0.612562        -2.092132
 H         0.253645         1.917603        -1.663749
 H        -1.393386         3.376963         2.958111
 H        -1.534229         1.666201         3.121895
 H        -0.007693         2.948235         0.766758
