19
Iteration:  4825
 O         0.297969        -0.445604         0.236518
 C        -0.649596         0.764354         0.183232
 C        -2.166262         0.555450         0.196523
 C        -2.174598         2.077164         0.294081
 C        -1.813821         2.532459        -1.089031
 C        -0.519939         1.653468        -1.140141
 O        -2.850954         2.771576         1.248361
 C        -1.787499         2.339799         2.269311
 C        -0.698484         1.964326         1.201338
 H         0.645951        -0.616169         1.120571
 H        -2.595438         0.019477        -0.618291
 H        -2.308287        -0.105638         1.065611
 H        -2.629561         2.277721        -1.779323
 H        -1.418506         3.524287        -1.101340
 H        -0.328082         0.982097        -2.059083
 H         0.345037         2.258517        -1.176578
 H        -1.689067         3.267891         2.829317
 H        -2.239448         1.568571         2.882497
 H         0.202019         2.604902         1.222209
