19
Iteration:  4270charge 0 multiplicity 1
 O         0.296140        -0.250472         0.160001
 C        -0.697075         0.730011         0.226681
 C        -2.186959         0.555700         0.284917
 C        -2.126255         2.106001         0.357756
 C        -1.732812         2.471898        -1.176527
 C        -0.538886         1.495127        -1.244125
 O        -2.765226         2.839792         1.352952
 C        -1.854638         2.311544         2.313552
 C        -0.731493         1.895017         1.143270
 H         0.288542        -0.487389         1.114468
 H        -2.814200         0.069936        -0.496946
 H        -2.468790         0.255877         1.305614
 H        -2.472112         2.039027        -1.954399
 H        -1.564493         3.473787        -1.468858
 H        -0.446990         0.678597        -1.997170
 H         0.357116         2.048261        -1.092953
 H        -1.374879         3.226654         2.852701
 H        -2.243388         1.479417         2.825325
 H         0.082216         2.650907         0.968800
