19
Iteration:  2069charge 0 multiplicity 1
 O         0.215777        -0.151259         0.454210
 C        -0.703161         0.749590         0.201373
 C        -2.192491         0.622604         0.307004
 C        -2.121267         2.118296         0.291832
 C        -1.815002         2.420126        -1.194810
 C        -0.676773         1.357912        -1.262887
 O        -2.809082         2.664338         1.422117
 C        -1.498776         2.356543         2.158447
 C        -0.705200         2.024566         0.926187
 H        -0.044954        -0.696616         1.231451
 H        -2.659513        -0.159519        -0.276599
 H        -2.240898         0.456837         1.422453
 H        -2.729862         2.133558        -1.759459
 H        -1.455477         3.399687        -1.420825
 H        -0.806896         0.677267        -2.094399
 H         0.261626         1.903043        -1.326346
 H        -1.217768         3.356249         2.539340
 H        -1.583639         1.754926         3.030941
 H        -0.060168         2.814877         0.642481
