19
Iteration:  4233charge 0 multiplicity 1
 O         0.293929        -0.359504         0.269114
 C        -0.594357         0.811373         0.203348
 C        -2.176927         0.599833         0.275416
 C        -2.166587         2.115591         0.282310
 C        -1.746575         2.490111        -1.102642
 C        -0.592001         1.476323        -1.199621
 O        -2.855523         2.778682         1.360806
 C        -1.722545         2.317955         2.239490
 C        -0.708180         2.033093         1.081199
 H        -0.043667        -1.147783         0.724956
 H        -2.582263         0.160849        -0.629772
 H        -2.473232        -0.042777         1.144320
 H        -2.573142         2.342164        -1.736907
 H        -1.595220         3.576358        -1.109190
 H        -0.591574         0.712638        -2.009551
 H         0.469742         1.943307        -1.358879
 H        -1.549605         2.974630         3.031911
 H        -2.048097         1.387662         2.826710
 H        -0.119368         2.904434         0.818057
