19
Iteration:  4205
 O         0.276327        -0.295788         0.462384
 C        -0.663075         0.782813         0.107752
 C        -2.182481         0.459600         0.226220
 C        -2.116155         2.148019         0.241721
 C        -1.694862         2.638254        -1.140962
 C        -0.659859         1.549990        -1.316233
 O        -2.842263         2.669287         1.350951
 C        -1.642095         2.282879         2.343212
 C        -0.748196         1.932949         1.044448
 H        -0.080753        -0.794550         1.212443
 H        -2.746758         0.000987        -0.629013
 H        -2.343204         0.128932         1.260561
 H        -2.594332         2.533285        -1.897804
 H        -1.490606         3.696629        -1.146393
 H        -0.735253         0.892768        -2.184433
 H         0.292337         1.929467        -1.399726
 H        -1.344187         3.333622         2.784487
 H        -1.998660         1.663703         3.129017
 H        -0.001447         2.744806         0.918274
