19
Iteration:  1348charge 0 multiplicity 1
 O         0.395057        -0.222057         0.418023
 C        -0.540162         0.750874         0.180607
 C        -2.203790         0.578039         0.319661
 C        -2.199454         2.067127         0.329304
 C        -1.835131         2.441183        -1.145131
 C        -0.647918         1.270816        -1.278118
 O        -2.806155         2.905391         1.309506
 C        -1.783163         2.336814         2.221570
 C        -0.723376         2.023529         1.151592
 H         0.564952        -0.567861        -0.492112
 H        -2.636422         0.137351        -0.567123
 H        -2.543834         0.158106         1.256496
 H        -2.641385         2.205735        -1.819759
 H        -1.541894         3.490229        -1.392035
 H        -0.860588         0.559485        -1.998495
 H         0.259942         1.915137        -1.604739
 H        -1.520381         3.073636         2.926034
 H        -2.101469         1.452513         2.833822
 H         0.216706         2.673301         1.010374
