19
Iteration:  2698charge 0 multiplicity 1
 O         0.342010        -0.250285         0.420270
 C        -0.646922         0.750589         0.197143
 C        -2.164185         0.528988         0.434010
 C        -2.122641         2.100696         0.270149
 C        -1.958927         2.440584        -1.159025
 C        -0.758016         1.436911        -1.315912
 O        -2.768076         2.786135         1.359117
 C        -1.556555         2.382645         2.215832
 C        -0.673895         2.070514         0.985396
 H        -0.164842        -1.040915         0.638084
 H        -2.748629        -0.122925        -0.271022
 H        -2.573874         0.135021         1.374605
 H        -2.648445         1.976233        -1.919313
 H        -1.699068         3.431960        -1.596527
 H        -0.858194         0.734803        -2.131021
 H         0.196035         1.971642        -1.530549
 H        -1.059476         3.250706         2.689931
 H        -1.868559         1.597893         2.952910
 H         0.240375         2.614104         0.932119
