19
Iteration:  3919
 O         0.273705        -0.200136         0.425609
 C        -0.690727         0.792411         0.267567
 C        -2.227449         0.541005         0.169752
 C        -2.069320         2.138159         0.319421
 C        -1.797245         2.495125        -1.150198
 C        -0.581959         1.521141        -1.232972
 O        -2.813806         2.740191         1.313354
 C        -1.674266         2.215266         2.275585
 C        -0.718160         1.971124         1.101116
 H         0.268418        -0.720985        -0.414673
 H        -2.665658         0.190751        -0.795926
 H        -2.653039         0.078209         1.106855
 H        -2.589071         2.056202        -1.795154
 H        -1.666674         3.617354        -1.343729
 H        -0.789535         0.751045        -1.926661
 H         0.398979         1.903700        -1.364543
 H        -1.178794         2.994692         2.972738
 H        -2.011796         1.320733         2.793724
 H         0.058678         2.727349         1.086431
