19
Iteration:  1103charge 0 multiplicity 1
 O         0.410366        -0.125380         0.384379
 C        -0.684559         0.667523         0.196813
 C        -2.170793         0.394779         0.327406
 C        -2.114557         2.095698         0.341512
 C        -1.772167         2.492463        -1.149446
 C        -0.733364         1.355412        -1.291714
 O        -2.765896         2.921117         1.335093
 C        -1.814607         2.323969         2.180575
 C        -0.720850         1.953772         1.039281
 H         0.759002         0.034690         1.295250
 H        -2.688561        -0.229220        -0.452593
 H        -2.632983         0.178095         1.339792
 H        -2.691889         2.374466        -1.794548
 H        -1.334077         3.469928        -1.183081
 H        -0.972859         0.584185        -2.192811
 H         0.235100         1.650555        -1.602270
 H        -1.325454         3.228896         2.769960
 H        -2.248927         1.557258         2.789683
 H         0.142512         2.666247         0.920324
