19
Iteration:  3162
 O         0.188642        -0.400283         0.257573
 C        -0.634144         0.762426         0.183543
 C        -2.095074         0.553411         0.276996
 C        -2.052242         2.111943         0.326948
 C        -1.787866         2.439605        -1.124583
 C        -0.581133         1.404712        -1.226847
 O        -2.893332         2.770012         1.390202
 C        -1.734471         2.359267         2.321542
 C        -0.723384         2.164424         1.082923
 H         1.083624        -0.138772        -0.063253
 H        -2.597387         0.332518        -0.715613
 H        -2.456655         0.092658         1.116302
 H        -2.649715         2.115111        -1.724671
 H        -1.481668         3.505244        -1.224958
 H        -0.712967         0.769366        -2.131605
 H         0.236713         2.050173        -1.368463
 H        -1.445581         3.085425         3.071736
 H        -2.006383         1.448058         2.786910
 H         0.017002         2.914428         0.944715
