19
Iteration:  2825charge 0 multiplicity 1
 O         0.320918        -0.190978         0.484208
 C        -0.699991         0.744287         0.145112
 C        -2.272941         0.514524         0.360325
 C        -2.175407         2.096415         0.256288
 C        -1.831501         2.418328        -1.212498
 C        -0.641995         1.401074        -1.257130
 O        -2.776526         2.769988         1.407179
 C        -1.501741         2.409673         2.258907
 C        -0.754564         2.002674         0.989281
 H         0.541879        -0.715188        -0.321297
 H        -2.810594         0.134132        -0.477265
 H        -2.685823         0.208483         1.395861
 H        -2.597797         2.134978        -1.924703
 H        -1.536432         3.468599        -1.264243
 H        -0.856578         0.617213        -2.089133
 H         0.265274         1.938980        -1.343515
 H        -1.121987         3.171034         2.908855
 H        -1.880995         1.467973         2.706578
 H        -0.068450         2.914229         0.810671
