19
Iteration:   209charge 0 multiplicity 1
 O         0.414958        -0.279381         0.241893
 C        -0.607571         0.772663         0.197289
 C        -2.195613         0.531468         0.341029
 C        -2.150917         2.049772         0.369956
 C        -2.018729         2.197180        -1.063588
 C        -0.675916         1.248222        -1.231115
 O        -2.722474         2.956464         1.290680
 C        -1.662324         2.526472         2.259659
 C        -0.772380         2.108780         1.036360
 H         1.009839         0.052040         0.944591
 H        -2.624547         0.180245        -0.544618
 H        -2.378209         0.072000         1.333420
 H        -2.860187         1.904248        -1.641428
 H        -1.739101         3.225420        -1.435841
 H        -0.735569         0.383011        -1.856604
 H         0.209508         1.831603        -1.583505
 H        -1.316305         3.326331         2.862247
 H        -2.058636         1.698271         2.785578
 H        -0.162529         2.926749         0.832885
