19
Iteration:  4177
 O         0.290787        -0.249088         0.326172
 C        -0.653580         0.804294         0.175893
 C        -2.268794         0.536355         0.131980
 C        -2.161107         2.143954         0.257552
 C        -1.707677         2.534386        -1.085759
 C        -0.552758         1.356433        -1.173732
 O        -2.823196         2.718664         1.453156
 C        -1.652440         2.249082         2.292054
 C        -0.791451         2.060934         0.964170
 H         0.484370        -0.437499         1.257487
 H        -2.755665         0.385534        -0.852591
 H        -2.651563         0.189967         1.080635
 H        -2.444121         2.337606        -1.793127
 H        -1.400566         3.638351        -1.064273
 H        -0.709903         0.611413        -1.992317
 H         0.532982         1.887379        -1.201148
 H        -1.480528         3.108821         2.857867
 H        -2.041734         1.257606         2.794290
 H        -0.142096         2.925048         0.833075
