19
Iteration:   400
 O         0.254935        -0.145284         0.629605
 C        -0.667292         0.754714         0.205541
 C        -2.100996         0.467802         0.506448
 C        -2.225964         1.993783         0.237757
 C        -1.959660         2.424139        -1.278768
 C        -0.765252         1.291955        -1.299881
 O        -2.721054         2.796392         1.455658
 C        -1.426319         2.518157         2.153252
 C        -0.773698         2.111666         0.802647
 H         0.567289        -0.811191        -0.028794
 H        -2.493793        -0.295645        -0.285773
 H        -2.362203         0.008873         1.479529
 H        -2.625928         2.242861        -2.161352
 H        -1.683127         3.466866        -1.314114
 H        -0.938289         0.527320        -2.101606
 H         0.182474         1.711588        -1.591924
 H        -1.120562         3.249410         2.868768
 H        -1.579266         1.605286         2.774709
 H        -0.042196         2.785651         0.226454
