19
Iteration:   145
 O         0.267220        -0.259384         0.589651
 C        -0.644338         0.762184         0.181947
 C        -2.095185         0.437954         0.355423
 C        -2.211657         2.026561         0.340028
 C        -1.900816         2.381603        -1.081603
 C        -0.707358         1.403448        -1.354174
 O        -2.815084         2.754767         1.364084
 C        -1.512745         2.523561         2.138171
 C        -0.737555         2.155132         0.928140
 H         0.703331        -0.600373        -0.230276
 H        -2.483892        -0.209395        -0.485653
 H        -2.357808        -0.128170         1.310604
 H        -2.728779         2.211020        -1.767874
 H        -1.625425         3.441888        -1.213725
 H        -0.923750         0.652236        -2.031781
 H         0.179931         1.975316        -1.806980
 H        -1.215296         3.470295         2.583002
 H        -1.705486         1.734936         2.868727
 H         0.054006         2.887220         0.571606
