19
Iteration:  2521charge 0 multiplicity 1
 O         0.353234        -0.283267         0.365832
 C        -0.600759         0.723158         0.219025
 C        -2.199574         0.454067         0.330544
 C        -2.246081         2.022113         0.348844
 C        -1.949308         2.388640        -1.066685
 C        -0.641910         1.447281        -1.201240
 O        -2.731419         2.834616         1.370430
 C        -1.553527         2.567784         2.137197
 C        -0.727546         2.032962         0.975581
 H        -0.129173        -1.089212         0.117521
 H        -2.660467        -0.137849        -0.527920
 H        -2.387103        -0.169261         1.306186
 H        -2.722740         2.290418        -1.872880
 H        -1.731418         3.491325        -1.037758
 H        -0.790259         0.674404        -2.028174
 H         0.117220         2.091841        -1.552906
 H        -1.055899         3.422125         2.573153
 H        -1.954928         1.859213         2.981743
 H        -0.182342         2.762278         0.486454
