19
Iteration:  2611charge 0 multiplicity 1
 O         0.422118        -0.124754         0.428491
 C        -0.697539         0.665784         0.164383
 C        -2.212309         0.507618         0.442374
 C        -2.088904         2.065585         0.324340
 C        -1.913470         2.418360        -1.081622
 C        -0.749210         1.311489        -1.387619
 O        -2.769477         2.935443         1.362370
 C        -1.620100         2.414632         2.222036
 C        -0.712213         1.913742         0.976420
 H         0.717475        -0.752749        -0.237037
 H        -2.890282        -0.108033        -0.348717
 H        -2.622386         0.198198         1.497945
 H        -2.686543         2.369977        -1.925690
 H        -1.509017         3.473803        -1.185207
 H        -1.248001         0.637995        -2.085198
 H         0.201345         1.766913        -1.861670
 H        -0.893890         3.070376         2.801931
 H        -2.123245         1.698573         2.968648
 H        -0.037669         2.760729         0.942227
