19
Iteration:   289
 O         0.328990        -0.288943         0.401163
 C        -0.648182         0.775235         0.219489
 C        -2.086576         0.492847         0.335851
 C        -2.148345         2.082224         0.253490
 C        -2.033054         2.313480        -1.233876
 C        -0.665670         1.307121        -1.273955
 O        -2.795232         2.733521         1.474290
 C        -1.531714         2.653103         2.277834
 C        -0.712764         2.156174         0.929641
 H        -0.185782        -1.106876         0.396880
 H        -2.575549        -0.279211        -0.372533
 H        -2.448555         0.139277         1.298088
 H        -2.807824         1.786250        -1.871864
 H        -1.804763         3.288720        -1.532228
 H        -0.819891         0.501053        -2.002444
 H         0.225372         1.922776        -1.420257
 H        -1.323260         3.729712         2.505110
 H        -1.567718         2.244985         3.270556
 H         0.107609         2.945378         0.762470
