19
Iteration:  4881charge 0 multiplicity 1
 O         0.226123        -0.309191         0.482202
 C        -0.595091         0.774932         0.208694
 C        -2.172640         0.564193         0.154973
 C        -2.103040         2.166224         0.252451
 C        -1.706615         2.619158        -1.105197
 C        -0.571300         1.482183        -1.314918
 O        -2.833642         2.688421         1.374960
 C        -1.774285         2.130130         2.243065
 C        -0.804345         2.071208         1.124207
 H         1.156642        -0.110961         0.686079
 H        -2.502039         0.092465        -0.734522
 H        -2.661538         0.021615         1.044321
 H        -2.500673         2.575931        -1.884496
 H        -1.308322         3.632810        -1.217838
 H        -1.066841         0.817758        -2.123550
 H         0.426438         1.779061        -1.607322
 H        -1.501092         2.954351         2.968116
 H        -2.111678         1.175504         2.579998
 H        -0.068296         2.939012         0.960344
