19
Iteration:  4426
 O         0.365551        -0.265481         0.190973
 C        -0.705293         0.685645         0.267823
 C        -2.168454         0.599247         0.255454
 C        -2.120985         2.228637         0.290221
 C        -1.729130         2.541847        -1.217522
 C        -0.582941         1.419462        -1.151645
 O        -2.838110         2.685667         1.394219
 C        -1.758254         2.355134         2.245346
 C        -0.797437         1.992436         1.101991
 H         0.089474        -1.089099         0.663988
 H        -2.792530         0.051598        -0.445516
 H        -2.550376         0.303650         1.293654
 H        -2.585869         2.312369        -1.806608
 H        -1.151286         3.467503        -1.296696
 H        -0.831700         0.721439        -1.911556
 H         0.512697         1.778645        -1.107741
 H        -1.448673         3.262206         2.836829
 H        -1.933588         1.545584         3.029976
 H         0.022970         2.702205         1.010335
