19
Iteration:  4024charge 0 multiplicity 1
 O         0.324018        -0.250028         0.281010
 C        -0.657146         0.713707         0.126638
 C        -2.212776         0.502443         0.285119
 C        -2.130659         2.104109         0.259186
 C        -1.822821         2.553323        -1.153917
 C        -0.523115         1.420939        -1.204033
 O        -2.784529         2.876713         1.420804
 C        -1.814139         2.210179         2.276996
 C        -0.765880         2.033829         1.050196
 H         0.816325        -0.035721         1.093998
 H        -2.794276         0.054986        -0.563946
 H        -2.596748         0.034988         1.165761
 H        -2.509191         2.362632        -1.916734
 H        -1.513149         3.626212        -1.225614
 H        -0.579058         0.681455        -2.057477
 H         0.556696         1.878560        -1.270128
 H        -1.509024         2.675529         3.158355
 H        -2.013147         1.138096         2.637401
 H         0.044593         2.744248         1.198936
