19
Iteration:  3979
 O         0.242509        -0.268386         0.225276
 C        -0.659107         0.746981         0.240542
 C        -2.090463         0.539515         0.169273
 C        -2.131339         2.077125         0.312546
 C        -1.777015         2.555287        -1.109195
 C        -0.581329         1.466477        -1.175239
 O        -2.809465         2.702405         1.359260
 C        -1.759241         2.407800         2.280865
 C        -0.754452         1.953792         1.089934
 H         0.413856        -0.543521         1.148750
 H        -2.564805        -0.041412        -0.617555
 H        -2.459690        -0.037262         0.993988
 H        -2.554588         2.561243        -1.866516
 H        -1.479291         3.591972        -0.986604
 H        -0.602002         0.692952        -2.044240
 H         0.470526         1.977374        -1.185963
 H        -1.436448         3.213734         2.947398
 H        -2.215443         1.564462         2.944408
 H        -0.047969         2.755804         0.740122
