19
Iteration:  4815
 O         0.296602        -0.402031         0.204298
 C        -0.548640         0.737303         0.177865
 C        -2.091817         0.477622         0.213376
 C        -2.141116         2.124686         0.300540
 C        -1.795009         2.548566        -1.044444
 C        -0.521301         1.543429        -1.189716
 O        -2.863536         2.818451         1.301864
 C        -1.878558         2.343140         2.207174
 C        -0.744955         1.938722         1.219643
 H         0.368513        -0.631072         1.158718
 H        -2.512703         0.142253        -0.669694
 H        -2.500844         0.102280         1.203287
 H        -2.436640         2.534721        -1.936629
 H        -1.617116         3.612968        -1.047193
 H        -0.717694         0.883236        -2.098899
 H         0.274782         2.225467        -1.167355
 H        -1.466041         3.153612         2.917222
 H        -2.243480         1.580594         2.877601
 H        -0.000931         2.809957         1.178608
