19
Iteration:  2171
 O         0.304167        -0.362040         0.320715
 C        -0.680960         0.774920         0.193151
 C        -2.141433         0.533871         0.267247
 C        -2.181552         2.043755         0.313609
 C        -1.820823         2.390110        -1.180060
 C        -0.629871         1.371405        -1.322033
 O        -2.828105         2.793523         1.470309
 C        -1.618009         2.561369         2.276905
 C        -0.729272         2.082507         1.041834
 H         0.269729        -0.521527         1.268489
 H        -2.645648        -0.175503        -0.489143
 H        -2.316522         0.062469         1.245005
 H        -2.605307         2.166885        -1.900955
 H        -1.580516         3.486346        -1.357604
 H        -0.845000         0.542183        -2.018834
 H         0.283459         1.837401        -1.728551
 H        -1.083843         3.430963         2.654613
 H        -1.899303         1.837133         3.016749
 H        -0.152172         2.978667         0.704947
