19
Iteration:  1971charge 0 multiplicity 1
 O         0.353914        -0.262990         0.295361
 C        -0.683313         0.708724         0.230054
 C        -2.132213         0.470417         0.313675
 C        -2.169298         2.132379         0.346406
 C        -1.872601         2.367536        -1.144348
 C        -0.663410         1.329065        -1.240108
 O        -2.760092         2.976309         1.389377
 C        -1.640053         2.423960         2.218053
 C        -0.733464         2.067156         1.019458
 H         0.168412        -0.964983         0.942183
 H        -2.739139         0.075744        -0.467479
 H        -2.518128        -0.023192         1.240132
 H        -2.646070         1.982811        -1.856399
 H        -1.650439         3.316206        -1.501643
 H        -0.789112         0.515363        -1.953521
 H         0.254908         1.803346        -1.501567
 H        -1.439236         3.176055         2.965432
 H        -1.872799         1.556077         2.766388
 H        -0.111344         2.816550         0.630669
