19
Iteration:   872
 O         0.302985        -0.323177         0.248697
 C        -0.618707         0.696399         0.133864
 C        -2.095309         0.546643         0.463170
 C        -2.065372         2.060978         0.284481
 C        -1.891274         2.365464        -1.151987
 C        -0.644085         1.384007        -1.238708
 O        -2.893922         2.791410         1.348749
 C        -1.726607         2.537270         2.201404
 C        -0.738456         2.066971         1.074162
 H         0.806088        -0.224206         1.058826
 H        -2.658140        -0.109974        -0.268513
 H        -2.244203         0.254194         1.520537
 H        -2.678979         2.092069        -1.786040
 H        -1.406517         3.345910        -1.335788
 H        -0.464652         0.699268        -2.070691
 H         0.257942         1.909775        -1.157564
 H        -1.411239         3.534040         2.454894
 H        -1.970437         1.994008         3.203919
 H        -0.004955         2.760628         0.753792
