19
Iteration:    90
 O         0.431850        -0.093837         0.335553
 C        -0.638789         0.760553         0.151015
 C        -2.185504         0.539876         0.560088
 C        -2.133846         2.093472         0.305109
 C        -1.909697         2.355743        -1.182573
 C        -0.701531         1.263365        -1.197628
 O        -2.807102         2.887232         1.233267
 C        -1.624303         2.246400         2.243360
 C        -0.736464         2.093896         0.945739
 H         0.079893        -0.908375         0.726275
 H        -2.840047         0.063071        -0.179171
 H        -2.451285         0.283197         1.620991
 H        -2.677421         2.081557        -1.855344
 H        -1.576257         3.399751        -1.392885
 H        -0.773998         0.558933        -1.936518
 H         0.236151         1.895107        -1.422679
 H        -1.262031         2.957145         2.948379
 H        -2.160296         1.454488         2.783835
 H         0.017825         2.936991         0.835127
