19
Iteration:  2581charge 0 multiplicity 1
 O         0.314305        -0.211247         0.425354
 C        -0.695175         0.787092         0.225076
 C        -2.169387         0.496087         0.415926
 C        -2.087318         2.170413         0.324849
 C        -1.880910         2.371456        -1.231582
 C        -0.741585         1.254739        -1.246843
 O        -2.778086         2.835488         1.411697
 C        -1.553041         2.329045         2.244182
 C        -0.719356         2.174197         0.924119
 H         0.542424        -0.689389        -0.398456
 H        -2.678896         0.016853        -0.477229
 H        -2.577806         0.042781         1.299831
 H        -2.721459         2.126228        -1.902810
 H        -1.508017         3.381726        -1.454876
 H        -1.103836         0.491813        -1.904132
 H         0.149833         1.801309        -1.768999
 H        -1.073059         2.917199         3.094157
 H        -1.848044         1.375529         2.618714
 H        -0.176687         3.205444         0.782470
