19
Iteration:    67charge 0 multiplicity 1
 O         0.357780        -0.301182         0.316226
 C        -0.549684         0.741260         0.214647
 C        -2.057358         0.392076         0.300324
 C        -2.098678         2.018195         0.294356
 C        -1.921434         2.378112        -1.157438
 C        -0.707641         1.385486        -1.314009
 O        -2.844995         2.829694         1.419433
 C        -1.696355         2.648672         2.209076
 C        -0.777625         2.084035         1.090492
 H         0.203386        -0.709304         1.208955
 H        -2.516486        -0.214340        -0.466737
 H        -2.393566         0.152519         1.336339
 H        -2.715327         2.126562        -1.805739
 H        -1.581984         3.423241        -1.333304
 H        -0.913140         0.560229        -1.908330
 H         0.197714         1.912132        -1.722610
 H        -1.357552         3.469832         2.793569
 H        -1.857635         1.849319         2.950642
 H        -0.141772         2.846587         0.663133
