19
Iteration:  3380
 O         0.317262        -0.312486         0.365787
 C        -0.639296         0.719448         0.062649
 C        -2.108881         0.597849         0.277712
 C        -2.028443         2.218225         0.346783
 C        -1.729302         2.545429        -1.123481
 C        -0.663583         1.374234        -1.304769
 O        -2.875636         2.767254         1.386180
 C        -1.850815         2.204645         2.303345
 C        -0.747661         2.047801         1.132867
 H         1.114956        -0.103549        -0.169156
 H        -2.782633         0.165850        -0.537057
 H        -2.660930         0.212983         1.099733
 H        -2.673114         2.575288        -1.706504
 H        -1.241941         3.521816        -1.275952
 H        -0.889646         0.674790        -2.147700
 H         0.357178         1.741679        -1.510094
 H        -1.425985         3.038299         2.912437
 H        -2.379773         1.415310         2.842960
 H         0.148963         2.632375         1.261328
