19
Iteration:   565charge 0 multiplicity 1
 O         0.256264        -0.339359         0.473774
 C        -0.538576         0.800674         0.195555
 C        -2.045277         0.472775         0.406929
 C        -2.160092         2.113137         0.329345
 C        -1.976627         2.284932        -1.237135
 C        -0.777565         1.280143        -1.392312
 O        -2.803339         2.933727         1.392031
 C        -1.619890         2.472636         2.250256
 C        -0.697162         2.136704         0.966823
 H         1.183807        -0.044963         0.631405
 H        -2.601374        -0.132819        -0.336465
 H        -2.232511         0.154476         1.468370
 H        -2.814931         1.909436        -1.760434
 H        -1.797151         3.372398        -1.543430
 H        -0.830284         0.406249        -1.996749
 H         0.049690         1.823511        -1.787934
 H        -1.175587         3.256612         2.676926
 H        -1.944211         1.812996         3.041446
 H         0.112805         2.848266         0.662873
