19
Iteration:  4220charge 0 multiplicity 1
 O         0.230422        -0.272268         0.358275
 C        -0.667950         0.712878         0.156358
 C        -2.110956         0.505153         0.247209
 C        -2.029398         2.091601         0.316101
 C        -1.846316         2.601430        -1.071339
 C        -0.542333         1.497052        -1.250443
 O        -2.793158         2.699366         1.344105
 C        -1.744455         2.325655         2.221385
 C        -0.766188         2.041268         1.061756
 H        -0.302657        -0.890687         0.888893
 H        -2.604907        -0.096493        -0.566347
 H        -2.465899         0.221459         1.224576
 H        -2.596453         2.464240        -1.810152
 H        -1.285442         3.599957        -1.095128
 H        -0.903612         0.832812        -2.016345
 H         0.395767         2.096374        -1.478878
 H        -1.379558         3.167115         2.742853
 H        -2.030221         1.412155         2.831243
 H         0.089748         2.703905         1.004146
