19
Iteration:  2010
 O         0.327024        -0.244060         0.196968
 C        -0.746708         0.675437         0.220456
 C        -2.195160         0.515776         0.470720
 C        -2.041700         2.145930         0.358821
 C        -1.858231         2.366657        -1.171830
 C        -0.662435         1.347816        -1.271165
 O        -2.761776         2.898267         1.278106
 C        -1.755513         2.451087         2.258818
 C        -0.667619         2.025953         1.102112
 H         0.651937        -0.656627         1.034718
 H        -2.838680         0.035543        -0.292442
 H        -2.142235        -0.010478         1.429132
 H        -2.716908         2.010077        -1.768155
 H        -1.637785         3.452574        -1.437339
 H        -0.831412         0.559969        -2.045992
 H         0.329733         1.852391        -1.437661
 H        -1.402357         3.360573         2.725747
 H        -2.093854         1.472963         2.798088
 H         0.185609         2.764756         0.908134
