19
Iteration:  1035charge 0 multiplicity 1
 O         0.267670        -0.367874         0.388284
 C        -0.582914         0.806405         0.225873
 C        -2.112579         0.523392         0.307913
 C        -2.126339         2.076853         0.269276
 C        -1.936074         2.313676        -1.188956
 C        -0.577304         1.552029        -1.252429
 O        -2.818173         2.688259         1.343453
 C        -1.678425         2.441504         2.242496
 C        -0.669595         2.184916         1.039772
 H        -0.344882        -0.964257         0.871140
 H        -2.803471         0.048947        -0.438057
 H        -2.490088         0.221696         1.331041
 H        -2.615109         1.892625        -1.903159
 H        -1.675134         3.386821        -1.401755
 H        -0.484591         0.821140        -2.128509
 H         0.270942         2.249886        -1.392616
 H        -1.397899         3.368475         2.670433
 H        -2.031552         1.728386         3.014491
 H         0.004039         2.976541         1.077745
