19
Iteration:  1741charge 0 multiplicity 1
 O         0.371647        -0.255864         0.336837
 C        -0.679251         0.710546         0.171413
 C        -2.234671         0.502128         0.384102
 C        -2.071004         2.193591         0.303923
 C        -1.859228         2.333441        -1.208932
 C        -0.663222         1.351701        -1.186627
 O        -2.762105         2.947715         1.266572
 C        -1.714205         2.391200         2.305187
 C        -0.738309         2.030487         1.104681
 H         0.841159        -0.331053        -0.485781
 H        -2.868122        -0.025163        -0.358007
 H        -2.358837         0.041969         1.320554
 H        -2.677491         1.804697        -1.654997
 H        -1.826102         3.364750        -1.612901
 H        -0.699169         0.505081        -1.847780
 H         0.327559         1.816658        -1.331540
 H        -1.303282         2.989187         3.164903
 H        -2.284542         1.499474         2.595564
 H         0.037315         2.764036         1.209387
