19
Iteration:   501charge 0 multiplicity 1
 O         0.388563        -0.275308         0.447761
 C        -0.638706         0.742073         0.156923
 C        -2.152298         0.495274         0.383260
 C        -2.092067         2.091731         0.317018
 C        -1.978467         2.351083        -1.127163
 C        -0.784081         1.247051        -1.353618
 O        -2.759666         2.815868         1.371443
 C        -1.597113         2.609090         2.215081
 C        -0.732755         2.022028         0.937033
 H         0.924801        -0.084404         1.216984
 H        -2.700530         0.135152        -0.451507
 H        -2.573315         0.211792         1.350189
 H        -2.811165         2.021172        -1.621587
 H        -1.696377         3.413336        -1.452404
 H        -1.100576         0.386679        -1.932791
 H         0.131586         1.699382        -1.720038
 H        -1.195405         3.575412         2.429686
 H        -1.886346         2.105050         3.174120
 H        -0.025573         2.828557         0.694937
