19
Iteration:  2984
 O         0.311792        -0.255452         0.394511
 C        -0.611944         0.760598         0.122357
 C        -2.224305         0.549275         0.394703
 C        -2.083278         2.195224         0.293645
 C        -1.803214         2.519844        -1.200042
 C        -0.712293         1.347653        -1.274543
 O        -2.804005         2.765115         1.381099
 C        -1.697796         2.290020         2.307578
 C        -0.706299         2.023495         1.013231
 H         1.057750        -0.204265        -0.240722
 H        -2.696722        -0.138604        -0.268730
 H        -2.448341         0.240825         1.468785
 H        -2.651649         2.181504        -1.882980
 H        -1.283756         3.415598        -1.481689
 H        -1.185517         0.599829        -1.902063
 H         0.285850         1.671289        -1.652907
 H        -1.532292         3.147766         2.982984
 H        -2.085744         1.450643         2.804118
 H        -0.094898         2.895333         1.022826
