19
Iteration:  1332
 O         0.332666        -0.232248         0.342559
 C        -0.702040         0.761275         0.264777
 C        -2.138815         0.530158         0.327119
 C        -2.039877         2.146601         0.264728
 C        -1.759568         2.379378        -1.174172
 C        -0.638094         1.393355        -1.175295
 O        -2.829305         2.789802         1.340839
 C        -1.739830         2.371598         2.258863
 C        -0.794294         2.061586         1.034125
 H         0.630697        -0.465745        -0.576253
 H        -2.606927        -0.093491        -0.475096
 H        -2.503441         0.074994         1.280990
 H        -2.604479         2.238579        -1.920364
 H        -1.416535         3.392601        -1.394224
 H        -1.044027         0.426474        -1.687453
 H         0.353654         1.622232        -1.470158
 H        -1.408407         3.265064         2.912119
 H        -2.104473         1.618692         2.976067
 H        -0.178219         2.922702         0.961128
