19
Iteration:  4370
 O         0.263957        -0.364066         0.358033
 C        -0.558774         0.738417         0.206230
 C        -2.167820         0.494013         0.235996
 C        -2.172337         2.169054         0.247443
 C        -1.858546         2.559455        -1.153261
 C        -0.598069         1.553743        -1.241300
 O        -2.742258         2.850378         1.342560
 C        -1.726383         2.231809         2.306092
 C        -0.780793         1.928670         1.075821
 H         0.722597        -0.311991         1.209879
 H        -2.548479        -0.031709        -0.681710
 H        -2.618926         0.038384         1.120936
 H        -2.717246         2.404442        -1.828747
 H        -1.522928         3.531322        -1.426309
 H        -0.671800         0.913634        -2.109766
 H         0.411931         1.954272        -1.362968
 H        -1.353444         3.033374         3.058877
 H        -2.104499         1.382041         2.872052
 H        -0.172205         2.847263         0.948745
