19
Iteration:   463
 O         0.359220        -0.225262         0.161438
 C        -0.603681         0.753216         0.266193
 C        -2.087618         0.466419         0.665182
 C        -2.143793         2.137563         0.300446
 C        -1.884004         2.310059        -1.188876
 C        -0.713436         1.245934        -1.189741
 O        -2.768993         2.928130         1.309190
 C        -1.695194         2.505999         2.182968
 C        -0.771759         2.076698         0.918779
 H         0.142124        -0.817187         0.912368
 H        -2.571613        -0.419635         0.105181
 H        -2.347147         0.349229         1.729882
 H        -2.846413         2.000212        -1.792131
 H        -1.643371         3.278934        -1.552154
 H        -0.953110         0.412459        -1.872247
 H         0.314960         1.592472        -1.455308
 H        -1.189440         3.420812         2.601819
 H        -2.017954         1.710202         2.820144
 H        -0.112729         2.932296         0.641912
