19
Iteration:  2519charge 0 multiplicity 1
 O         0.351822        -0.279623         0.358029
 C        -0.571245         0.731133         0.190949
 C        -2.204523         0.449303         0.347330
 C        -2.224729         2.006803         0.335714
 C        -1.950619         2.395891        -1.064383
 C        -0.655168         1.439496        -1.174363
 O        -2.742848         2.843248         1.368708
 C        -1.546320         2.542040         2.132043
 C        -0.748534         2.046768         0.984009
 H        -0.108818        -1.121461         0.143550
 H        -2.695967        -0.041814        -0.469969
 H        -2.427815        -0.152360         1.223384
 H        -2.667054         2.322940        -1.863508
 H        -1.712476         3.475157        -1.043165
 H        -0.831504         0.627651        -1.938634
 H         0.124958         2.031212        -1.569309
 H        -1.067048         3.418478         2.585623
 H        -1.976450         1.940067         2.966591
 H        -0.140423         2.793324         0.466330
