19
Iteration:   411
 O         0.291638        -0.220414         0.616015
 C        -0.642108         0.770608         0.168386
 C        -2.073930         0.404282         0.374373
 C        -2.241778         2.036488         0.323273
 C        -1.981768         2.296702        -1.224049
 C        -0.732346         1.341915        -1.336583
 O        -2.754097         2.859197         1.388843
 C        -1.386629         2.536496         2.204162
 C        -0.823739         2.151245         0.887506
 H         0.190228        -0.928585        -0.051683
 H        -2.751083        -0.076865        -0.418749
 H        -2.229965         0.039803         1.410542
 H        -2.849385         2.109096        -1.898617
 H        -1.592660         3.304929        -1.323012
 H        -0.920941         0.501258        -2.045113
 H         0.196989         1.851261        -1.470982
 H        -0.996467         3.448977         2.624595
 H        -1.512654         1.716751         2.932395
 H        -0.127289         3.011771         0.547839
