19
Iteration:   727
 O         0.407855        -0.273895         0.250304
 C        -0.701788         0.732926         0.270518
 C        -2.164246         0.447608         0.528689
 C        -2.038541         2.119018         0.300673
 C        -1.849312         2.387827        -1.161221
 C        -0.752457         1.318874        -1.254420
 O        -2.833905         2.816712         1.289407
 C        -1.709731         2.557432         2.165275
 C        -0.714077         2.068936         1.027330
 H         0.720507        -0.441535         1.181179
 H        -2.616033        -0.166170        -0.303070
 H        -2.407019         0.257073         1.605316
 H        -2.754865         1.965710        -1.572126
 H        -1.613548         3.406345        -1.613865
 H        -1.040412         0.718711        -2.094059
 H         0.190253         1.718000        -1.657603
 H        -1.302345         3.523189         2.593904
 H        -1.907173         1.721520         2.991942
 H         0.129734         2.668182         0.841989
