19
Iteration:  1999charge 0 multiplicity 1
 O         0.364258        -0.223367         0.163529
 C        -0.646986         0.701464         0.186400
 C        -2.208431         0.584236         0.535088
 C        -2.059444         2.105360         0.291200
 C        -1.854073         2.323937        -1.189196
 C        -0.688324         1.339234        -1.278997
 O        -2.700153         2.913632         1.301050
 C        -1.798376         2.424315         2.267393
 C        -0.710793         1.981269         1.109666
 H         0.338026        -0.739344         1.018088
 H        -2.966436        -0.013869        -0.033437
 H        -2.593855         0.555400         1.550173
 H        -2.694380         2.000141        -1.820750
 H        -1.528571         3.362890        -1.533415
 H        -0.656193         0.547422        -2.057781
 H         0.258444         1.940214        -1.389773
 H        -1.609169         3.104842         3.115603
 H        -2.195969         1.543515         2.956381
 H         0.048364         2.788488         0.828348
