19
Iteration:  4030charge 0 multiplicity 1
 O         0.273863        -0.251023         0.292864
 C        -0.679552         0.737567         0.182751
 C        -2.163131         0.432364         0.248817
 C        -2.126834         2.137784         0.311187
 C        -1.795064         2.557528        -1.164609
 C        -0.535128         1.456138        -1.239874
 O        -2.751958         2.851975         1.409207
 C        -1.783997         2.174147         2.253205
 C        -0.775716         2.072605         1.080105
 H         0.634271        -0.006799         1.162209
 H        -2.628662        -0.135494        -0.549569
 H        -2.670899        -0.098467         1.112175
 H        -2.582245         2.359575        -2.016888
 H        -1.464816         3.576476        -1.223322
 H        -0.721076         0.695619        -1.996420
 H         0.396521         1.903396        -1.301216
 H        -1.504037         2.886577         3.162295
 H        -2.129184         1.191092         2.503060
 H         0.052530         2.844699         0.990000
