19
Iteration:  4734
 O         0.177685        -0.242865         0.578523
 C        -0.610800         0.761414         0.212065
 C        -2.124375         0.552534         0.153099
 C        -2.145942         2.062166         0.253633
 C        -1.796039         2.518930        -1.145267
 C        -0.533399         1.600160        -1.334962
 O        -2.767722         2.752581         1.405649
 C        -1.757101         2.214215         2.268332
 C        -0.724022         1.991877         1.022693
 H         0.036676        -1.077820         0.065257
 H        -2.581787         0.079841        -0.763082
 H        -2.436164        -0.188761         0.833204
 H        -2.726024         2.456986        -1.665932
 H        -1.541016         3.589454        -1.000743
 H        -0.487275         0.917210        -2.172488
 H         0.386747         2.242422        -1.506221
 H        -1.329337         2.951510         2.858173
 H        -2.050085         1.300221         2.821718
 H        -0.111311         2.807048         0.778118
