19
Iteration:  1282
 O         0.175133        -0.345269         0.490762
 C        -0.635151         0.777301         0.178543
 C        -2.082818         0.372118         0.251419
 C        -2.120913         2.092723         0.290990
 C        -1.896473         2.474017        -1.108913
 C        -0.597282         1.469440        -1.303445
 O        -2.819605         2.744186         1.308523
 C        -1.607773         2.478257         2.255632
 C        -0.764945         2.057790         1.037200
 H         1.122852        -0.273279         0.310027
 H        -2.601754         0.026751        -0.671452
 H        -2.449885        -0.048687         1.179185
 H        -2.682095         2.220186        -1.773452
 H        -1.634785         3.536238        -1.370559
 H        -0.561922         0.807034        -2.117152
 H         0.284458         2.193332        -1.160023
 H        -1.355567         3.408623         2.787298
 H        -1.850066         1.759159         3.088780
 H        -0.083749         2.964998         0.862558
