19
Iteration:   122
 O         0.456643        -0.069527         0.539583
 C        -0.633697         0.733864         0.155644
 C        -2.228882         0.512233         0.307293
 C        -2.149095         2.110870         0.238047
 C        -1.971769         2.353526        -1.261790
 C        -0.736294         1.260462        -1.269443
 O        -2.694293         2.827863         1.463295
 C        -1.623419         2.423176         2.292701
 C        -0.785026         2.033541         0.957110
 H         0.371416        -0.864968        -0.014230
 H        -2.718088         0.074583        -0.574840
 H        -2.779446         0.082048         1.200068
 H        -2.662695         1.920397        -1.929910
 H        -1.686649         3.351036        -1.679595
 H        -0.934138         0.487036        -1.916568
 H         0.279534         1.672549        -1.540284
 H        -1.102402         3.219185         2.772391
 H        -2.006746         1.683511         2.985888
 H         0.007517         2.766834         0.767682
