19
Iteration:  2858
 O         0.409696        -0.221364         0.329458
 C        -0.629497         0.735353         0.123564
 C        -2.101234         0.501820         0.396317
 C        -2.074341         2.187564         0.299327
 C        -1.817018         2.469628        -1.146549
 C        -0.771599         1.332517        -1.272023
 O        -2.853677         2.860412         1.316925
 C        -1.647061         2.366740         2.260260
 C        -0.782446         2.001054         1.123953
 H        -0.007336        -1.071706         0.518141
 H        -2.565775        -0.023320        -0.430021
 H        -2.550242         0.167660         1.374103
 H        -2.592554         2.322195        -1.860800
 H        -1.499757         3.504475        -1.318352
 H        -1.174929         0.489347        -1.949514
 H         0.150949         1.548291        -1.754157
 H        -1.239585         3.002732         3.000680
 H        -2.136604         1.568536         2.867648
 H         0.025062         2.787464         0.928865
