19
Iteration:  3674charge 0 multiplicity 1
 O         0.178859        -0.421007         0.348214
 C        -0.616827         0.780774         0.136926
 C        -2.120788         0.553293         0.193546
 C        -2.070015         2.105910         0.316732
 C        -1.812843         2.588391        -1.143229
 C        -0.538910         1.558058        -1.216401
 O        -2.820010         2.657205         1.371113
 C        -1.758814         2.316011         2.280344
 C        -0.773115         2.060517         1.114775
 H         1.010053        -0.105003         0.749804
 H        -2.732374         0.121336        -0.662812
 H        -2.526376         0.195578         1.198066
 H        -2.655210         2.268040        -1.807216
 H        -1.656038         3.649106        -1.453389
 H        -0.696499         0.802889        -2.054902
 H         0.421746         2.038526        -1.444697
 H        -1.335331         3.124103         2.922912
 H        -1.948178         1.488243         3.037675
 H         0.085653         2.719016         0.950571
