19
Iteration:  4392
 O         0.292098        -0.306227         0.230993
 C        -0.674443         0.728308         0.098213
 C        -2.151984         0.458264         0.251161
 C        -2.153042         2.054640         0.338772
 C        -1.778477         2.428058        -1.016116
 C        -0.543206         1.550127        -1.251911
 O        -2.750020         2.936500         1.336951
 C        -1.813882         2.337314         2.245847
 C        -0.776052         1.962256         1.142868
 H         0.503645        -0.527242         1.160630
 H        -2.836518         0.077782        -0.537031
 H        -2.215965        -0.075675         1.215950
 H        -2.639738         2.431733        -1.693728
 H        -1.454700         3.409922        -1.184798
 H        -0.551507         0.793658        -2.033970
 H         0.528090         1.844631        -1.265450
 H        -1.544403         3.126491         3.057004
 H        -2.285893         1.456117         2.701523
 H        -0.063545         2.799709         0.915727
