19
Iteration:  4859
 O         0.204751        -0.341318         0.354288
 C        -0.654858         0.820752         0.115944
 C        -2.198548         0.585767         0.151819
 C        -2.195506         2.143078         0.271533
 C        -1.664858         2.484662        -1.198991
 C        -0.426269         1.522714        -1.180276
 O        -2.879172         2.711581         1.475904
 C        -1.767634         2.218112         2.318222
 C        -0.834013         2.037631         1.040286
 H         0.903582         0.081064         0.904997
 H        -2.683869         0.057737        -0.617582
 H        -2.310626         0.050944         1.137050
 H        -2.492080         2.350161        -1.897723
 H        -1.281633         3.464743        -1.423909
 H        -0.336663         0.833238        -2.074351
 H         0.461825         2.100067        -1.031239
 H        -1.286114         3.025570         2.928928
 H        -1.948705         1.300261         2.841242
 H         0.070076         2.700227         0.864899
