19
Iteration:   130charge 0 multiplicity 1
 O         0.363821        -0.130150         0.575895
 C        -0.602671         0.777852         0.195038
 C        -2.139667         0.449628         0.239394
 C        -2.125788         2.074214         0.238028
 C        -2.007014         2.385916        -1.246508
 C        -0.750333         1.296312        -1.267508
 O        -2.731117         2.818171         1.423613
 C        -1.555690         2.470028         2.295118
 C        -0.801432         2.037682         0.959524
 H         0.460842        -0.756633        -0.171326
 H        -2.628128        -0.050987        -0.558915
 H        -2.538993         0.020516         1.151764
 H        -2.831021         2.122336        -1.934341
 H        -1.563207         3.393536        -1.433338
 H        -0.959458         0.377564        -1.909946
 H         0.196224         1.696394        -1.517765
 H        -1.098649         3.328618         2.793784
 H        -1.744261         1.788952         3.111604
 H        -0.201953         2.825912         0.669745
