19
Iteration:   866charge 0 multiplicity 1
 O         0.334873        -0.324664         0.229022
 C        -0.650713         0.707946         0.156912
 C        -2.117425         0.455030         0.442678
 C        -2.118787         2.106492         0.298300
 C        -1.880755         2.365451        -1.079237
 C        -0.600030         1.342403        -1.236402
 O        -2.862378         2.809032         1.322706
 C        -1.726367         2.536774         2.230421
 C        -0.754864         2.142110         1.028095
 H         0.676055        -0.256007         1.152628
 H        -2.707385        -0.186224        -0.176276
 H        -2.306505         0.206796         1.489519
 H        -2.730866         2.236895        -1.877185
 H        -1.372255         3.308595        -1.226329
 H        -0.585586         0.584308        -2.058266
 H         0.445521         1.867766        -1.368142
 H        -1.434120         3.539201         2.699385
 H        -1.934478         1.741746         2.917819
 H        -0.008566         2.974702         0.659596
