19
Iteration:  3491charge 0 multiplicity 1
 O         0.315116        -0.302835         0.456870
 C        -0.647106         0.767323         0.146105
 C        -2.192515         0.535702         0.245837
 C        -2.229433         2.092250         0.291193
 C        -1.711310         2.574085        -1.131531
 C        -0.568908         1.458602        -1.375721
 O        -2.779770         2.845414         1.454821
 C        -1.752078         2.179297         2.292965
 C        -0.847298         1.982017         0.983736
 H         1.242259        -0.108321         0.248913
 H        -2.715526         0.025960        -0.585705
 H        -2.549086         0.095656         1.219481
 H        -2.521297         2.703759        -1.811244
 H        -1.230716         3.623306        -1.029547
 H        -0.675302         0.685182        -2.089872
 H         0.464931         1.913608        -1.518737
 H        -1.430558         2.868503         3.073252
 H        -2.184011         1.270262         2.772730
 H        -0.168437         2.813405         0.845270
