19
Iteration:  2089
 O         0.342161        -0.283151         0.404643
 C        -0.616073         0.763949         0.200740
 C        -2.204347         0.516006         0.353634
 C        -2.126633         2.136621         0.323890
 C        -1.924652         2.419196        -1.249120
 C        -0.659390         1.337426        -1.298658
 O        -2.758104         2.808646         1.407470
 C        -1.613014         2.382273         2.253005
 C        -0.707816         2.141318         0.962246
 H        -0.094452        -0.721707         1.169343
 H        -2.667968         0.114800        -0.483109
 H        -2.755344         0.237706         1.261623
 H        -2.676383         2.043960        -1.995438
 H        -1.636805         3.398209        -1.512578
 H        -0.902614         0.479376        -1.946097
 H         0.195594         1.879226        -1.659593
 H        -1.386108         3.130114         3.048738
 H        -1.791820         1.417790         2.839856
 H         0.022403         2.901896         0.872435
