19
Iteration:  3992charge 0 multiplicity 1
 O         0.336303        -0.257323         0.226118
 C        -0.704759         0.702844         0.151951
 C        -2.256036         0.465901         0.224171
 C        -2.040388         2.131482         0.278710
 C        -1.768585         2.544015        -1.143912
 C        -0.561839         1.493819        -1.208347
 O        -2.845162         2.755173         1.358293
 C        -1.766349         2.350559         2.323865
 C        -0.758360         1.946416         1.178851
 H         0.764689        -0.199470         1.094495
 H        -2.653443         0.187864        -0.764575
 H        -2.656888         0.158263         1.160822
 H        -2.540911         2.214869        -1.771161
 H        -1.479654         3.635517        -1.376438
 H        -0.719126         0.787559        -2.046920
 H         0.481778         1.956080        -1.310962
 H        -1.453518         3.220868         2.813147
 H        -2.072019         1.555039         3.088654
 H         0.162808         2.539454         1.229639
