19
Iteration:  4060charge 0 multiplicity 1
 O         0.307418        -0.327623         0.398825
 C        -0.605626         0.744044         0.117828
 C        -2.142235         0.590470         0.176356
 C        -2.126421         2.099499         0.327202
 C        -1.837166         2.596614        -1.115306
 C        -0.548917         1.469151        -1.289948
 O        -2.843535         2.703727         1.389228
 C        -1.709321         2.266300         2.262435
 C        -0.758088         2.014633         1.081496
 H        -0.027058        -0.412450         1.316270
 H        -2.680660         0.214833        -0.712081
 H        -2.513403         0.210592         1.180659
 H        -2.609580         2.470648        -1.910078
 H        -1.484219         3.667064        -1.029462
 H        -0.834255         0.774377        -2.059886
 H         0.394004         1.952251        -1.543763
 H        -1.470020         3.195932         2.795690
 H        -2.100334         1.484325         2.893397
 H         0.060207         2.695091         0.875631
