19
Iteration:  1955charge 0 multiplicity 1
 O         0.277047        -0.249804         0.429354
 C        -0.654008         0.744348         0.131115
 C        -2.240576         0.460320         0.305559
 C        -2.060215         2.067170         0.288761
 C        -1.892415         2.398368        -1.133438
 C        -0.694993         1.382372        -1.264967
 O        -2.742718         2.781707         1.377025
 C        -1.591192         2.504126         2.223175
 C        -0.739603         2.092845         0.952399
 H        -0.022417        -0.644343         1.284196
 H        -2.508960        -0.171753        -0.589229
 H        -2.547967        -0.004996         1.236870
 H        -2.760569         2.261592        -1.776247
 H        -1.484778         3.480762        -1.123307
 H        -0.845093         0.650736        -2.082643
 H         0.275927         1.937893        -1.449566
 H        -1.023584         3.271117         2.834251
 H        -1.856081         1.750332         3.134246
 H         0.120512         2.811227         0.731610
