19
Iteration:  3060
 O         0.236515        -0.280000         0.409143
 C        -0.645142         0.795280         0.081358
 C        -2.107025         0.624511         0.317768
 C        -2.071395         2.077165         0.326205
 C        -1.852468         2.430164        -1.120112
 C        -0.595244         1.507464        -1.304846
 O        -2.846181         2.719891         1.374169
 C        -1.661439         2.264377         2.262584
 C        -0.688996         2.080782         1.032657
 H        -0.254095        -1.109065         0.363275
 H        -2.809239         0.145312        -0.297339
 H        -2.194420         0.284715         1.428045
 H        -2.608356         2.151143        -1.950122
 H        -1.752798         3.503196        -1.282417
 H        -0.869487         0.728486        -2.019937
 H         0.407253         1.949836        -1.599024
 H        -1.441305         3.180142         2.870359
 H        -1.817336         1.475719         2.970056
 H        -0.021970         2.942212         0.975106
