19
Iteration:  2507charge 0 multiplicity 1
 O         0.385502        -0.256055         0.321302
 C        -0.624529         0.749678         0.165111
 C        -2.171174         0.453574         0.397918
 C        -2.120790         2.004592         0.342920
 C        -1.881504         2.427677        -1.094022
 C        -0.731075         1.374441        -1.245742
 O        -2.804956         2.862710         1.340086
 C        -1.586772         2.494368         2.250247
 C        -0.778755         2.066747         0.945507
 H        -0.046868        -1.121975         0.260024
 H        -2.734213         0.127121        -0.422284
 H        -2.500774         0.149870         1.342645
 H        -2.672510         2.177232        -1.760805
 H        -1.463867         3.428683        -1.135659
 H        -1.046474         0.559192        -1.920019
 H         0.298381         1.654033        -1.452782
 H        -1.213874         3.470467         2.612626
 H        -1.670139         1.695994         3.016742
 H        -0.078924         2.950445         0.870919
