19
Iteration:  3557charge 0 multiplicity 1
 O         0.106525        -0.439187         0.270593
 C        -0.581755         0.806358         0.114777
 C        -2.043426         0.564739         0.340273
 C        -2.077493         2.170520         0.315522
 C        -1.766009         2.518455        -1.141226
 C        -0.471726         1.537464        -1.255011
 O        -2.911606         2.680721         1.382385
 C        -1.814791         2.322097         2.343861
 C        -0.762981         2.081544         1.098746
 H         0.933218        -0.269570        -0.217028
 H        -2.533430        -0.047539        -0.444788
 H        -2.186796         0.090517         1.348587
 H        -2.452033         2.138078        -1.838008
 H        -1.441308         3.493921        -1.580282
 H        -0.611090         0.819208        -2.003027
 H         0.553929         2.096070        -1.444459
 H        -1.540347         3.099151         3.036933
 H        -2.188945         1.479994         2.973167
 H        -0.026686         2.861818         1.058374
