19
Iteration:  3723charge 0 multiplicity 1
 O         0.287879        -0.413332         0.293066
 C        -0.701269         0.695118         0.225895
 C        -2.134267         0.508222         0.276705
 C        -2.125525         2.147701         0.275585
 C        -1.791943         2.595582        -1.101476
 C        -0.529476         1.541440        -1.137666
 O        -2.829350         2.735168         1.332175
 C        -1.741607         2.328729         2.309553
 C        -0.843176         2.026103         1.023669
 H         0.918160        -0.107786        -0.389583
 H        -2.472402        -0.242995        -0.456854
 H        -2.593266         0.318655         1.227812
 H        -2.471093         2.496244        -1.979842
 H        -1.444885         3.615630        -1.134605
 H        -0.560194         0.918336        -2.040344
 H         0.544267         1.907827        -1.100252
 H        -1.417734         3.252858         2.847388
 H        -1.947989         1.475917         3.003314
 H        -0.073037         2.738392         0.693499
