19
Iteration:   140
 O         0.293731        -0.215468         0.585940
 C        -0.660103         0.769303         0.222440
 C        -2.093807         0.421569         0.273846
 C        -2.187760         2.038128         0.319282
 C        -1.936576         2.380087        -1.164518
 C        -0.710393         1.364181        -1.318953
 O        -2.786712         2.788340         1.373496
 C        -1.495229         2.498838         2.206093
 C        -0.771936         2.117950         0.959184
 H         0.646879        -0.677272        -0.183948
 H        -2.425502        -0.144312        -0.569965
 H        -2.274771         0.006933         1.238634
 H        -2.885111         2.311208        -1.748776
 H        -1.612847         3.436720        -1.262746
 H        -0.969410         0.471611        -2.024519
 H         0.070413         1.911754        -1.774939
 H        -1.204755         3.488571         2.583430
 H        -1.653494         1.706651         2.948096
 H        -0.115809         2.889285         0.627700
