19
Iteration:  4401
 O         0.321784        -0.270440         0.156812
 C        -0.599712         0.722969         0.159744
 C        -2.259177         0.513407         0.319047
 C        -2.163859         2.080832         0.374228
 C        -1.738088         2.473416        -1.079587
 C        -0.512613         1.470551        -1.224611
 O        -2.803491         2.886789         1.294971
 C        -1.784626         2.351878         2.262695
 C        -0.759084         1.922235         1.161042
 H         0.278686        -0.621339         1.073912
 H        -2.857673        -0.014789        -0.489764
 H        -2.526796         0.005312         1.236962
 H        -2.603381         2.226304        -1.788213
 H        -1.371618         3.442159        -1.115740
 H        -0.672066         0.826986        -2.205494
 H         0.482901         2.052688        -1.278744
 H        -1.537610         3.109778         3.129846
 H        -2.104168         1.478372         2.776621
 H        -0.152158         2.858194         0.889382
