19
Iteration:  1030
 O         0.262666        -0.374874         0.394125
 C        -0.565150         0.826471         0.235624
 C        -2.122657         0.548100         0.377123
 C        -2.134566         2.052923         0.237621
 C        -1.921082         2.299495        -1.170490
 C        -0.554151         1.579810        -1.271348
 O        -2.828537         2.717355         1.362352
 C        -1.696643         2.446873         2.180470
 C        -0.692914         2.104085         1.037966
 H        -0.338236        -1.013650         0.783369
 H        -2.592528         0.105481        -0.501401
 H        -2.396508         0.155073         1.329801
 H        -2.686867         1.946543        -1.923616
 H        -1.817019         3.397116        -1.258735
 H        -0.522480         0.894884        -2.069260
 H         0.241857         2.368656        -1.349678
 H        -1.390220         3.442178         2.650389
 H        -1.914626         1.637613         2.896333
 H         0.139672         2.934395         0.953171
