19
Iteration:  1618
 O         0.297155        -0.222403         0.421881
 C        -0.632982         0.835340         0.152924
 C        -2.138816         0.475162         0.437752
 C        -2.155349         2.078764         0.299906
 C        -1.850457         2.349038        -1.112667
 C        -0.567683         1.388193        -1.255243
 O        -2.767045         2.953524         1.296421
 C        -1.698148         2.258148         2.222884
 C        -0.774863         2.090403         1.025302
 H         0.103157        -0.904042        -0.229330
 H        -2.595380        -0.049830        -0.421185
 H        -2.447096        -0.006984         1.415907
 H        -2.522371         1.851889        -1.746154
 H        -1.774255         3.482905        -1.365808
 H        -1.033006         0.750921        -1.979245
 H         0.443916         1.714893        -1.632038
 H        -1.152657         3.053620         2.862709
 H        -2.244105         1.459775         2.603612
 H        -0.016099         2.906521         0.893235
