19
Iteration:   407charge 0 multiplicity 1
 O         0.268739        -0.194050         0.624588
 C        -0.639842         0.767682         0.183575
 C        -2.051617         0.418041         0.417896
 C        -2.253362         2.012359         0.294009
 C        -1.976086         2.346275        -1.260575
 C        -0.754705         1.321368        -1.335012
 O        -2.745172         2.841581         1.403566
 C        -1.378426         2.529576         2.185275
 C        -0.828635         2.143924         0.876631
 H         0.308050        -0.899840        -0.060729
 H        -2.704825        -0.086799        -0.367914
 H        -2.269483        -0.006742         1.410886
 H        -2.816331         2.146001        -2.039592
 H        -1.593121         3.362163        -1.279487
 H        -0.957932         0.542018        -2.054558
 H         0.261908         1.804231        -1.393118
 H        -1.010552         3.423592         2.841023
 H        -1.483126         1.694478         2.871622
 H        -0.101508         2.842669         0.429580
