19
Iteration:  1655charge 0 multiplicity 1
 O         0.307127        -0.151050         0.561207
 C        -0.687270         0.710818         0.179504
 C        -2.237334         0.514893         0.289106
 C        -2.069262         2.167293         0.252939
 C        -1.809667         2.501572        -1.219049
 C        -0.674713         1.410048        -1.295415
 O        -2.829593         2.677402         1.408691
 C        -1.566334         2.377744         2.220399
 C        -0.753483         2.030272         0.970428
 H         0.275299        -1.091044         0.356901
 H        -2.563141        -0.036508        -0.588099
 H        -2.688888         0.180613         1.188410
 H        -2.647156         2.086838        -1.782303
 H        -1.698060         3.485787        -1.490425
 H        -0.928556         0.620016        -2.020347
 H         0.343463         1.682359        -1.485516
 H        -1.239376         3.325086         2.570534
 H        -1.659135         1.828472         3.156299
 H         0.161090         2.597251         0.946635
