19
Iteration:  2198charge 0 multiplicity 1
 O         0.258044        -0.287492         0.486634
 C        -0.662881         0.784957         0.145701
 C        -2.132450         0.567774         0.328112
 C        -2.093307         2.113209         0.316898
 C        -1.908870         2.455206        -1.150844
 C        -0.692691         1.361240        -1.301099
 O        -2.787258         2.695445         1.387246
 C        -1.608454         2.389851         2.248791
 C        -0.626705         2.130808         0.889452
 H        -0.287910        -0.734176         1.141986
 H        -2.583588        -0.020930        -0.404264
 H        -2.270584         0.198460         1.360099
 H        -2.770522         2.213408        -1.817575
 H        -1.621669         3.461188        -1.359785
 H        -0.841488         0.607053        -2.086978
 H         0.248924         1.917149        -1.503398
 H        -1.274618         3.349952         2.725749
 H        -1.942850         1.483541         2.844866
 H        -0.059390         3.005341         0.532975
