19
Iteration:   757
 O         0.282101        -0.359058         0.329044
 C        -0.616717         0.789184         0.202403
 C        -2.173623         0.513909         0.460721
 C        -2.189364         1.990178         0.259386
 C        -1.865479         2.317157        -1.117655
 C        -0.616912         1.358912        -1.302732
 O        -2.819901         2.807544         1.338248
 C        -1.659057         2.623115         2.232229
 C        -0.769023         2.101111         1.015929
 H         1.182135        -0.050357         0.478926
 H        -2.659753        -0.050369        -0.291054
 H        -2.207827         0.089983         1.467076
 H        -2.714231         2.001111        -1.837269
 H        -1.559609         3.309996        -1.298689
 H        -0.778413         0.469616        -1.989129
 H         0.286087         2.011141        -1.620863
 H        -1.157919         3.522647         2.726520
 H        -1.718275         1.975144         3.057119
 H         0.024358         2.863248         0.763963
