19
Iteration:  1459
 O         0.383182        -0.255739         0.370272
 C        -0.696588         0.692545         0.167397
 C        -2.162689         0.433298         0.340288
 C        -2.103599         2.089295         0.350842
 C        -1.870991         2.471432        -1.061787
 C        -0.556306         1.396314        -1.209131
 O        -2.812182         2.841133         1.266646
 C        -1.688992         2.454249         2.190352
 C        -0.761886         2.068371         1.037557
 H         0.061153        -1.116890         0.097729
 H        -2.811286        -0.064580        -0.363760
 H        -2.417800         0.265291         1.409226
 H        -2.636135         2.116921        -1.779123
 H        -1.641490         3.510455        -1.024849
 H        -0.820710         0.711212        -2.013908
 H         0.387771         1.859938        -1.481067
 H        -1.433584         3.211247         2.820372
 H        -2.159399         1.570166         2.700721
 H        -0.144352         2.954556         0.796017
