19
Iteration:  3005
 O         0.378959        -0.227927         0.318491
 C        -0.658885         0.765250         0.210557
 C        -2.235883         0.581954         0.272650
 C        -2.111803         2.056339         0.385810
 C        -1.794868         2.403558        -1.114154
 C        -0.657929         1.329727        -1.315625
 O        -2.814476         2.838096         1.396081
 C        -1.669054         2.414920         2.288139
 C        -0.824428         1.978508         1.053097
 H         0.699869        -0.227254        -0.599782
 H        -2.729431         0.247039        -0.625985
 H        -2.649787         0.013972         1.165087
 H        -2.681749         2.094122        -1.747332
 H        -1.320163         3.378939        -1.182485
 H        -0.686467         0.488891        -1.995132
 H         0.282330         1.971611        -1.330487
 H        -1.089704         3.245125         2.689702
 H        -2.056195         1.684091         2.921373
 H         0.051139         2.625177         1.051354
