19
Iteration:  1452charge 0 multiplicity 1
 O         0.361372        -0.280128         0.386641
 C        -0.684813         0.738729         0.193746
 C        -2.153379         0.505387         0.361918
 C        -2.118004         2.031350         0.300861
 C        -1.795212         2.437789        -1.072663
 C        -0.643069         1.445023        -1.257555
 O        -2.811293         2.793218         1.271749
 C        -1.718746         2.430319         2.189641
 C        -0.710427         2.090454         1.080536
 H        -0.079837        -1.100230         0.120284
 H        -2.673446        -0.189595        -0.358177
 H        -2.481316         0.166504         1.340823
 H        -2.645609         2.231167        -1.778996
 H        -1.621896         3.512227        -1.141704
 H        -0.832307         0.775513        -2.175549
 H         0.322721         1.901545        -1.375506
 H        -1.351890         3.424759         2.673293
 H        -1.993003         1.633637         2.965731
 H        -0.134509         2.934083         0.777169
