19
Iteration:  2445charge 0 multiplicity 1
 O         0.348198        -0.232441         0.397503
 C        -0.664328         0.720858         0.163298
 C        -2.175609         0.454637         0.299033
 C        -2.136263         2.064155         0.337364
 C        -1.958500         2.382700        -1.170433
 C        -0.686673         1.367687        -1.250408
 O        -2.696687         2.869855         1.456139
 C        -1.611802         2.422294         2.170922
 C        -0.730441         2.128075         0.946406
 H        -0.136197        -0.738054         1.076240
 H        -2.863838         0.091653        -0.547410
 H        -2.563813        -0.078199         1.239398
 H        -2.857998         2.380602        -1.841783
 H        -1.577980         3.438441        -1.263759
 H        -0.793474         0.566521        -2.043169
 H         0.215117         1.921400        -1.418254
 H        -1.155782         3.057837         2.906813
 H        -1.661073         1.454596         2.770536
 H        -0.038259         2.873493         0.647839
