19
Iteration:  4921charge 0 multiplicity 1
 O         0.342386        -0.358525         0.406304
 C        -0.686826         0.815020         0.171748
 C        -2.209808         0.531530         0.213649
 C        -2.119020         2.099940         0.283854
 C        -1.631135         2.593983        -1.079376
 C        -0.523603         1.514782        -1.293320
 O        -2.854232         2.769896         1.370969
 C        -1.841120         2.227777         2.246384
 C        -0.853199         1.980704         1.099110
 H         1.082848        -0.031922        -0.145750
 H        -2.708448        -0.053705        -0.637319
 H        -2.487563         0.145958         1.224054
 H        -2.483738         2.340489        -1.737072
 H        -1.336578         3.655619        -1.074063
 H        -0.639459         0.744181        -2.103708
 H         0.420823         1.981071        -1.546285
 H        -1.519179         2.994592         2.920123
 H        -2.150075         1.348000         2.899187
 H        -0.197463         2.770866         1.201391
