19
Iteration:  4253charge 0 multiplicity 1
 O         0.334398        -0.292543         0.140768
 C        -0.673627         0.721532         0.161898
 C        -2.208753         0.533162         0.300672
 C        -2.056775         2.173321         0.284060
 C        -1.762913         2.402988        -1.209179
 C        -0.479554         1.436410        -1.126330
 O        -2.848623         2.871292         1.432803
 C        -1.751888         2.293745         2.328726
 C        -0.878959         2.068612         1.110040
 H         0.212449        -1.043320         0.762520
 H        -2.621597         0.056663        -0.600213
 H        -2.541794         0.219119         1.289535
 H        -2.523205         2.149835        -1.940455
 H        -1.377491         3.467690        -1.528934
 H        -0.507022         0.803851        -2.002033
 H         0.514016         1.947009        -1.355378
 H        -1.493571         3.019262         3.043505
 H        -2.188501         1.427424         2.941283
 H        -0.076864         2.787130         1.147510
