19
Iteration:    97
 O         0.470238        -0.040200         0.365547
 C        -0.652372         0.741499         0.170415
 C        -2.264070         0.599635         0.539862
 C        -2.084462         2.127734         0.277776
 C        -1.908258         2.289625        -1.156898
 C        -0.702408         1.279298        -1.253332
 O        -2.844530         2.912798         1.273180
 C        -1.598786         2.204063         2.218796
 C        -0.730340         2.053039         0.975707
 H         0.140281        -0.909977         0.588957
 H        -3.017200         0.131295        -0.060282
 H        -2.434892         0.386943         1.549840
 H        -2.724860         2.054378        -1.882736
 H        -1.496083         3.275152        -1.423556
 H        -0.656129         0.417487        -2.017645
 H         0.208186         1.778990        -1.313785
 H        -1.244297         2.931125         2.947750
 H        -1.986437         1.286359         2.535953
 H        -0.085407         2.808930         0.722848
