19
Iteration:  2568charge 0 multiplicity 1
 O         0.273765        -0.234012         0.448126
 C        -0.624670         0.780839         0.173015
 C        -2.154624         0.630336         0.410397
 C        -2.142183         2.126106         0.269904
 C        -1.917468         2.326928        -1.168473
 C        -0.699675         1.319831        -1.320433
 O        -2.790982         2.794831         1.463128
 C        -1.551672         2.334113         2.192088
 C        -0.712577         2.158489         0.967367
 H         0.394213        -0.700728        -0.391464
 H        -2.714145         0.004108        -0.436283
 H        -2.582832         0.368398         1.454628
 H        -2.814928         1.982486        -1.781349
 H        -1.698612         3.364984        -1.505298
 H        -0.806548         0.482049        -1.992921
 H         0.396703         1.709187        -1.455391
 H        -1.398934         3.249071         2.831066
 H        -1.682536         1.410224         2.851236
 H         0.237117         2.690941         0.707888
