19
Iteration:  2017
 O         0.310018        -0.292529         0.210477
 C        -0.681621         0.722805         0.199916
 C        -2.167228         0.474470         0.423998
 C        -2.055429         2.148272         0.352034
 C        -1.862681         2.361016        -1.133856
 C        -0.661583         1.364613        -1.212769
 O        -2.816452         2.893558         1.276858
 C        -1.652639         2.460648         2.226514
 C        -0.724073         2.043310         1.054122
 H         0.497395        -0.405767         1.178234
 H        -2.688569        -0.043155        -0.470823
 H        -2.380687        -0.207975         1.288361
 H        -2.812642         2.187434        -1.657546
 H        -1.670870         3.456623        -1.323813
 H        -0.949489         0.629785        -1.969448
 H         0.389717         1.656031        -1.450001
 H        -1.241871         3.324470         2.786123
 H        -2.131842         1.811886         2.964084
 H         0.175625         2.722697         1.065224
