19
Iteration:  3330
 O         0.198828        -0.332929         0.433387
 C        -0.655513         0.722310         0.148588
 C        -2.248534         0.518640         0.220138
 C        -2.170160         2.101136         0.293445
 C        -1.818364         2.571397        -1.093816
 C        -0.528107         1.576451        -1.227739
 O        -2.815466         2.742685         1.343766
 C        -1.612261         2.271729         2.252828
 C        -0.749274         1.965635         1.057690
 H         1.087415         0.059212         0.322861
 H        -2.675414         0.159921        -0.702720
 H        -2.546641        -0.188330         1.138519
 H        -2.607606         2.421276        -1.845840
 H        -1.266845         3.587128        -1.094167
 H        -0.496807         0.992833        -2.128945
 H         0.443937         2.152476        -1.178594
 H        -1.357648         3.116259         2.869361
 H        -1.970745         1.414172         2.853579
 H         0.051860         2.640031         0.660134
