19
Iteration:  4458
 O         0.208315        -0.299958         0.458892
 C        -0.601578         0.777133         0.156799
 C        -2.114610         0.567593         0.157619
 C        -2.160169         2.081054         0.354914
 C        -1.781439         2.511457        -1.091425
 C        -0.538210         1.487275        -1.329304
 O        -2.761078         2.697975         1.392700
 C        -1.684933         2.294710         2.246459
 C        -0.822343         2.043235         1.020018
 H        -0.295649        -0.845850         1.081369
 H        -2.691954         0.115320        -0.641174
 H        -2.321549         0.025914         1.146848
 H        -2.573571         2.611731        -1.834086
 H        -1.433371         3.543736        -1.000355
 H        -0.890475         1.010787        -2.243357
 H         0.404066         2.078880        -1.595737
 H        -1.428878         3.259892         2.767164
 H        -1.858064         1.399122         2.853671
 H        -0.203495         2.922819         0.799469
