19
Iteration:   592
 O         0.393712        -0.267951         0.360616
 C        -0.674659         0.701556         0.213149
 C        -2.199675         0.499288         0.506981
 C        -2.047875         2.061208         0.332891
 C        -1.946751         2.362823        -1.141243
 C        -0.790237         1.284324        -1.211289
 O        -2.762765         2.850953         1.196478
 C        -1.674438         2.527227         2.146842
 C        -0.635139         2.100865         1.085481
 H         1.088424         0.006460        -0.295364
 H        -2.916284        -0.094201        -0.056590
 H        -2.367932         0.446082         1.550996
 H        -2.876995         1.888563        -1.637978
 H        -1.764431         3.380255        -1.369935
 H        -1.072902         0.371188        -1.848630
 H         0.144115         1.839047        -1.629657
 H        -1.433442         3.536780         2.813011
 H        -2.003084         1.717100         2.837263
 H         0.157107         2.777846         0.667627
