19
Iteration:  4920
 O         0.339773        -0.352447         0.414499
 C        -0.683923         0.814567         0.168626
 C        -2.210203         0.531253         0.222341
 C        -2.118466         2.104058         0.289139
 C        -1.637694         2.602149        -1.079702
 C        -0.526529         1.509913        -1.302268
 O        -2.854296         2.767161         1.359793
 C        -1.841562         2.223627         2.241505
 C        -0.847288         1.974424         1.105141
 H         1.110960        -0.045204        -0.128133
 H        -2.717972        -0.054222        -0.632612
 H        -2.478727         0.139718         1.194647
 H        -2.489169         2.348271        -1.719426
 H        -1.314450         3.657206        -1.071181
 H        -0.682046         0.807927        -2.123390
 H         0.444949         1.960365        -1.568761
 H        -1.517595         2.959861         2.933239
 H        -2.139714         1.349715         2.920941
 H        -0.181230         2.763078         1.209968
