19
Iteration:  4800
 O         0.329809        -0.288619         0.209284
 C        -0.639820         0.749747         0.167896
 C        -2.115070         0.511881         0.260919
 C        -2.066945         2.064596         0.310457
 C        -1.659097         2.580960        -1.078669
 C        -0.534162         1.504164        -1.215508
 O        -2.873460         2.830991         1.332016
 C        -1.876358         2.283349         2.331438
 C        -0.856269         1.999891         1.085845
 H         0.170015        -0.906668         0.927307
 H        -2.544242        -0.101239        -0.637559
 H        -2.390605         0.003078         1.169734
 H        -2.538847         2.369167        -1.685108
 H        -1.216487         3.599948        -1.091684
 H        -0.792476         0.690876        -1.959427
 H         0.510196         1.712533        -1.540366
 H        -1.628394         3.061045         2.998605
 H        -2.338998         1.458373         2.928806
 H        -0.138216         2.752581         1.010454
