19
Iteration:  3529
 O         0.325032        -0.343080         0.344481
 C        -0.651235         0.732267         0.227163
 C        -2.265423         0.547553         0.214117
 C        -2.102622         2.129859         0.292230
 C        -1.791917         2.570402        -1.054831
 C        -0.557813         1.493089        -1.207217
 O        -2.823191         2.752688         1.334279
 C        -1.721912         2.281594         2.264642
 C        -0.787361         1.987409         1.093515
 H         0.927176         0.098279        -0.282909
 H        -2.567289         0.210420        -0.767586
 H        -2.721494         0.033268         1.016339
 H        -2.590966         2.417136        -1.866422
 H        -1.306729         3.487361        -1.272539
 H        -0.701054         0.657469        -1.988026
 H         0.381099         1.976484        -1.333011
 H        -1.326883         3.012128         3.003747
 H        -2.141604         1.480479         2.859772
 H        -0.026632         2.807071         0.959818
