19
Iteration:  2312charge 0 multiplicity 1
 O         0.216317        -0.276073         0.484469
 C        -0.617769         0.754772         0.170435
 C        -2.168551         0.571019         0.257409
 C        -2.126584         2.124570         0.333683
 C        -1.886587         2.346277        -1.217086
 C        -0.657584         1.356652        -1.302996
 O        -2.798974         2.765517         1.480801
 C        -1.533649         2.434246         2.286310
 C        -0.784071         2.135942         0.954882
 H         0.687593        -0.592764        -0.292864
 H        -2.740996        -0.036232        -0.535815
 H        -2.574694         0.014399         1.110162
 H        -2.748229         2.116378        -1.861181
 H        -1.506264         3.408130        -1.442002
 H        -0.561009         0.557444        -2.058315
 H         0.309711         1.885730        -1.535086
 H        -1.139186         3.359600         2.831215
 H        -1.562133         1.527162         2.988906
 H        -0.131074         2.895739         0.710942
