19
Iteration:  4806
 O         0.303656        -0.326854         0.191649
 C        -0.573013         0.730018         0.176216
 C        -2.053198         0.484833         0.255904
 C        -2.057529         2.068373         0.308994
 C        -1.722420         2.594555        -1.063708
 C        -0.537591         1.504219        -1.204647
 O        -2.883756         2.849117         1.340620
 C        -1.915371         2.309097         2.272380
 C        -0.835190         1.954994         1.136016
 H         0.153435        -0.720496         1.082912
 H        -2.512091         0.048698        -0.583437
 H        -2.660016         0.076513         1.129561
 H        -2.518452         2.345008        -1.798030
 H        -1.411533         3.643033        -0.999502
 H        -0.728330         0.817498        -2.014803
 H         0.488031         1.878939        -1.466980
 H        -1.364766         3.145249         2.863355
 H        -2.316674         1.468131         2.832816
 H        -0.095515         2.834253         0.994508
