19
Iteration:  1718
 O         0.291806        -0.271330         0.360613
 C        -0.628820         0.749531         0.208208
 C        -2.154956         0.602356         0.429842
 C        -2.126818         2.079323         0.279060
 C        -1.857284         2.327302        -1.145784
 C        -0.656658         1.377337        -1.255743
 O        -2.742616         2.884521         1.288798
 C        -1.786621         2.364478         2.217884
 C        -0.694754         2.016350         1.085103
 H         0.653015        -0.546485        -0.511912
 H        -2.553791        -0.096094        -0.339522
 H        -2.528263         0.332246         1.402722
 H        -2.710281         2.067850        -1.724277
 H        -1.602417         3.452783        -1.278915
 H        -0.626573         0.630659        -2.033475
 H         0.192436         2.094234        -1.441189
 H        -1.381479         3.324651         2.744568
 H        -2.025667         1.580635         2.938442
 H         0.086263         2.795072         1.170252
