19
Iteration:  3055charge 0 multiplicity 1
 O         0.253637        -0.290907         0.411402
 C        -0.652586         0.778331         0.076740
 C        -2.095063         0.613261         0.370608
 C        -2.117101         2.083459         0.331304
 C        -1.866632         2.421160        -1.127652
 C        -0.574897         1.528786        -1.293132
 O        -2.835959         2.747560         1.344616
 C        -1.664601         2.253244         2.267412
 C        -0.682473         2.051895         1.042994
 H        -0.235637        -1.128050         0.228549
 H        -2.818297         0.043387        -0.346246
 H        -2.299494         0.290054         1.313794
 H        -2.611091         2.205531        -1.820015
 H        -1.594572         3.528594        -1.130642
 H        -0.831714         0.822166        -2.112382
 H         0.279593         2.128189        -1.566332
 H        -1.370929         3.242437         2.599081
 H        -1.826622         1.451499         3.081301
 H        -0.109962         2.992942         0.778327
