19
Iteration:  1509
 O         0.330087        -0.177096         0.550821
 C        -0.690836         0.784846         0.154119
 C        -2.202558         0.630712         0.347360
 C        -2.116129         2.155808         0.322795
 C        -1.878818         2.409287        -1.219311
 C        -0.645706         1.312175        -1.251305
 O        -2.794268         2.798107         1.329780
 C        -1.698950         2.252301         2.263607
 C        -0.656731         2.016475         0.956265
 H         0.523347        -0.658134        -0.292178
 H        -2.617277         0.224382        -0.591798
 H        -2.353716         0.031529         1.254637
 H        -2.771039         2.052637        -1.685053
 H        -1.576222         3.496504        -1.526782
 H        -0.779029         0.569110        -2.056372
 H         0.312422         1.913583        -1.502077
 H        -1.502849         3.271919         2.910765
 H        -1.915949         1.360922         2.840783
 H         0.202957         2.713614         0.824945
