19
Iteration:  1981
 O         0.406671        -0.298814         0.222153
 C        -0.618377         0.763673         0.226414
 C        -2.237195         0.558992         0.426861
 C        -2.162012         2.152951         0.311989
 C        -1.894363         2.327622        -1.188707
 C        -0.628180         1.324041        -1.211662
 O        -2.734017         2.993509         1.321219
 C        -1.675470         2.327338         2.281226
 C        -0.815356         2.078552         1.030837
 H         0.235979        -1.025303         0.870803
 H        -2.663763         0.042416        -0.375779
 H        -2.336032         0.040057         1.380023
 H        -2.683102         1.957001        -1.874426
 H        -1.630414         3.316005        -1.377564
 H        -0.823471         0.451811        -1.832379
 H         0.261499         1.808141        -1.522662
 H        -1.128386         3.103306         2.795774
 H        -2.087685         1.597245         2.919150
 H        -0.111132         2.854612         0.931186
