19
Iteration:  4727
 O         0.171838        -0.309695         0.561413
 C        -0.640634         0.766750         0.219722
 C        -2.110244         0.522187         0.170256
 C        -2.169070         2.121695         0.337742
 C        -1.805511         2.502547        -1.079020
 C        -0.476182         1.647318        -1.320977
 O        -2.787331         2.758763         1.355667
 C        -1.703805         2.212481         2.194196
 C        -0.776423         2.001397         1.020114
 H         0.070479        -0.970282        -0.167006
 H        -2.455971         0.098352        -0.764097
 H        -2.239889        -0.122604         1.105074
 H        -2.537969         2.180924        -1.923871
 H        -1.656344         3.586429        -1.088853
 H        -0.618773         0.965607        -2.270953
 H         0.341163         2.265070        -1.535167
 H        -1.411272         2.976345         3.011546
 H        -2.002403         1.376187         2.844499
 H        -0.041413         2.813963         0.761969
