19
Iteration:  4543charge 0 multiplicity 1
 O         0.364853        -0.320838         0.177159
 C        -0.601191         0.747779         0.187569
 C        -2.106667         0.470045         0.306236
 C        -2.086443         2.069869         0.303527
 C        -1.765106         2.606494        -1.081149
 C        -0.630530         1.460262        -1.170525
 O        -2.799963         2.829957         1.284115
 C        -1.873834         2.313446         2.269797
 C        -0.787855         1.988122         1.125347
 H         0.146478        -0.972009         0.862944
 H        -2.675727        -0.073600        -0.431715
 H        -2.442653         0.308658         1.338778
 H        -2.542245         2.624578        -1.905723
 H        -1.284969         3.454365        -0.771795
 H        -1.056298         0.792342        -1.964975
 H         0.359963         1.805323        -1.424605
 H        -1.582172         3.218220         2.934182
 H        -2.203461         1.601076         2.962055
 H        -0.111727         2.868196         0.857401
