19
Iteration:  3961
 O         0.295899        -0.390692         0.293749
 C        -0.599221         0.814990         0.123794
 C        -2.162201         0.474976         0.283545
 C        -2.130438         2.050670         0.271938
 C        -1.702739         2.535019        -1.048537
 C        -0.513834         1.542154        -1.223461
 O        -2.919097         2.737922         1.391023
 C        -1.660129         2.298790         2.242035
 C        -0.839562         2.147742         1.055183
 H        -0.181560        -0.943070         0.950139
 H        -2.732894         0.008172        -0.600649
 H        -2.605501        -0.005244         1.173237
 H        -2.419278         2.382704        -1.836465
 H        -1.394386         3.690042        -0.958496
 H        -0.846138         0.952964        -2.019542
 H         0.425124         2.023432        -1.456831
 H        -1.508080         3.226279         2.729006
 H        -1.956406         1.507986         2.895709
 H        -0.089709         2.871184         0.848588
