19
Iteration:  4256charge 0 multiplicity 1
 O         0.320291        -0.278469         0.141549
 C        -0.676826         0.720411         0.162317
 C        -2.204977         0.540512         0.299508
 C        -2.056268         2.194103         0.244662
 C        -1.746413         2.407646        -1.215522
 C        -0.483943         1.436880        -1.138099
 O        -2.831075         2.862148         1.442531
 C        -1.777598         2.309902         2.325951
 C        -0.870931         2.031753         1.121953
 H         0.327336        -1.019343         0.762237
 H        -2.632783        -0.002574        -0.519400
 H        -2.519141         0.131112         1.309181
 H        -2.600850         2.132276        -1.802139
 H        -1.482210         3.413755        -1.447469
 H        -0.465029         0.747973        -2.033844
 H         0.538229         1.938837        -1.266044
 H        -1.486337         2.994777         3.110389
 H        -2.198739         1.483353         2.962349
 H        -0.085227         2.799942         1.100575
