19
Iteration:  1162
 O         0.212295        -0.270258         0.297133
 C        -0.623261         0.745096         0.254450
 C        -2.100597         0.534008         0.390416
 C        -2.185485         2.056569         0.320072
 C        -1.825769         2.357810        -1.274328
 C        -0.516545         1.507027        -1.203347
 O        -2.863295         2.690276         1.331471
 C        -1.591360         2.452991         2.247669
 C        -0.787966         2.097315         0.982219
 H        -0.223125        -1.009859         0.736606
 H        -2.749864        -0.112619        -0.154310
 H        -2.263530         0.487748         1.458950
 H        -2.558091         2.120763        -2.014664
 H        -1.729606         3.468021        -1.378487
 H        -0.463074         0.758676        -1.913787
 H         0.421004         2.139017        -1.080809
 H        -1.328144         3.470563         2.653313
 H        -1.766632         1.745879         3.153339
 H         0.065945         2.843648         1.005359
