19
Iteration:  1640charge 0 multiplicity 1
 O         0.397326        -0.228573         0.542078
 C        -0.685841         0.735803         0.216683
 C        -2.166617         0.557427         0.279630
 C        -2.131150         2.160908         0.270285
 C        -1.890908         2.405875        -1.204213
 C        -0.667717         1.360404        -1.310721
 O        -2.759284         2.769365         1.397218
 C        -1.675162         2.370756         2.240532
 C        -0.738272         2.045625         0.984140
 H        -0.074858        -1.002548         0.134044
 H        -2.798647         0.031981        -0.454967
 H        -2.553911         0.304124         1.318374
 H        -2.721805         2.299535        -1.866416
 H        -1.349772         3.432604        -1.431537
 H        -0.747133         0.709424        -2.182351
 H         0.218927         2.059103        -1.410249
 H        -1.231572         3.169639         2.974388
 H        -1.943471         1.431382         2.653490
 H        -0.111988         2.918163         0.668553
