19
Iteration:  3532charge 0 multiplicity 1
 O         0.320284        -0.363137         0.331872
 C        -0.643936         0.724414         0.233119
 C        -2.246434         0.584457         0.214263
 C        -2.074420         2.114529         0.292177
 C        -1.803232         2.551477        -1.081116
 C        -0.563779         1.482622        -1.189968
 O        -2.836410         2.747125         1.346798
 C        -1.735518         2.288784         2.246150
 C        -0.783227         2.017243         1.114549
 H         0.955900         0.015405        -0.304186
 H        -2.596180         0.214073        -0.843951
 H        -2.731373         0.032661         1.087784
 H        -2.564351         2.453314        -1.867732
 H        -1.325383         3.532442        -1.208816
 H        -0.707142         0.687672        -2.038941
 H         0.358979         2.098060        -1.376598
 H        -1.346724         3.034774         3.019619
 H        -2.112294         1.436819         2.886839
 H        -0.051118         2.827114         0.981894
