19
Iteration:  1228charge 0 multiplicity 1
 O         0.382236        -0.136768         0.334583
 C        -0.704185         0.711202         0.187501
 C        -2.211807         0.515149         0.415444
 C        -2.118137         2.116958         0.239344
 C        -1.760847         2.409713        -1.202600
 C        -0.670124         1.327526        -1.278416
 O        -2.798586         2.841136         1.382172
 C        -1.755106         2.291670         2.254259
 C        -0.728424         2.053236         1.000526
 H         0.465950        -0.513765         1.242721
 H        -2.980205         0.195609        -0.277787
 H        -2.334739         0.309307         1.459062
 H        -2.465649         2.270852        -1.982448
 H        -1.277027         3.426038        -1.265260
 H        -0.872810         0.587631        -1.987992
 H         0.362794         1.825469        -1.535854
 H        -1.596450         3.099498         2.991000
 H        -1.956308         1.273128         2.818661
 H         0.119732         2.801528         0.808779
