19
Iteration:  1495
 O         0.353227        -0.128410         0.465254
 C        -0.640495         0.746571         0.217975
 C        -2.254452         0.530109         0.303053
 C        -2.047057         2.126610         0.255455
 C        -1.875066         2.338480        -1.208413
 C        -0.622174         1.406126        -1.296571
 O        -2.701021         2.842622         1.351802
 C        -1.693550         2.314172         2.254806
 C        -0.813582         2.025655         1.097936
 H         0.465661        -0.802596        -0.203577
 H        -2.925994        -0.001420        -0.429553
 H        -2.684483         0.387396         1.276578
 H        -2.670266         2.003731        -1.913453
 H        -1.726795         3.321931        -1.526571
 H        -0.890799         0.497094        -1.935327
 H         0.322857         1.798418        -1.569092
 H        -1.289049         2.929094         3.060671
 H        -2.165165         1.455777         2.853527
 H        -0.085727         2.787608         0.968041
