19
Iteration:   957charge 0 multiplicity 1
 O         0.417370        -0.117733         0.532610
 C        -0.668179         0.741479         0.218949
 C        -2.212264         0.574327         0.400907
 C        -2.061428         2.172364         0.298134
 C        -1.815119         2.425111        -1.208060
 C        -0.795710         1.304780        -1.349135
 O        -2.758613         2.739429         1.299498
 C        -1.724093         2.286953         2.262071
 C        -0.772452         2.049469         0.991088
 H         0.898894        -0.413702        -0.259162
 H        -2.675812         0.015294        -0.444948
 H        -2.451070         0.188843         1.395376
 H        -2.649430         2.470401        -1.853075
 H        -1.188759         3.347300        -1.479619
 H        -1.159842         0.411024        -1.866683
 H         0.174608         1.779279        -1.740345
 H        -1.526990         3.130793         2.841934
 H        -1.983908         1.382195         2.830463
 H         0.034361         2.738624         1.040969
