19
Iteration:  2763charge 0 multiplicity 1
 O         0.253101        -0.318966         0.263406
 C        -0.612955         0.770141         0.191542
 C        -2.125742         0.541405         0.480921
 C        -2.098870         2.152379         0.299056
 C        -1.897865         2.449157        -1.165177
 C        -0.718987         1.322332        -1.210727
 O        -2.774503         2.754111         1.332861
 C        -1.659830         2.409568         2.189064
 C        -0.686627         2.090270         1.003396
 H         0.921106        -0.241447         0.969649
 H        -2.700138         0.010133        -0.332090
 H        -2.487998         0.243594         1.459785
 H        -2.825664         2.213095        -1.761748
 H        -1.652700         3.521662        -1.411476
 H        -0.928192         0.634183        -2.022398
 H         0.287902         1.722175        -1.464256
 H        -1.243494         3.255145         2.762551
 H        -2.123441         1.711363         2.901911
 H         0.124814         2.787279         1.031731
