19
Iteration:  4488
 O         0.289316        -0.276946         0.415805
 C        -0.700985         0.734193         0.228635
 C        -2.213692         0.508788         0.237932
 C        -2.128455         2.193784         0.289237
 C        -1.817470         2.527650        -1.201467
 C        -0.551646         1.547521        -1.225279
 O        -2.777286         2.769819         1.391143
 C        -1.653462         2.161510         2.204830
 C        -0.788492         2.001102         1.029198
 H         0.334665        -0.618471         1.343391
 H        -2.679261         0.043053        -0.653744
 H        -2.600499         0.107535         1.168091
 H        -2.589269         2.391096        -2.067232
 H        -1.608410         3.562528        -1.305722
 H        -0.629286         1.061137        -2.284891
 H         0.417297         2.074471        -1.355452
 H        -1.389371         3.021787         2.926261
 H        -1.883724         1.308679         2.778829
 H         0.104808         2.712381         0.920905
