19
Iteration:   797
 O         0.315299        -0.195831         0.632879
 C        -0.601073         0.807928         0.225988
 C        -2.234493         0.585699         0.367445
 C        -2.156707         2.077119         0.273703
 C        -1.957263         2.306165        -1.227245
 C        -0.665554         1.397647        -1.327423
 O        -2.733298         2.773233         1.378622
 C        -1.558673         2.343737         2.141879
 C        -0.743068         2.085327         0.942090
 H         0.722651        -0.651281        -0.143031
 H        -2.715070        -0.049071        -0.397174
 H        -2.607364         0.346171         1.375665
 H        -2.834860         1.968564        -1.828419
 H        -1.780723         3.381037        -1.370449
 H        -0.694027         0.530317        -2.039222
 H         0.138408         1.994505        -1.684307
 H        -1.249501         3.241069         2.686453
 H        -1.925499         1.547115         2.827757
 H         0.058532         2.859162         0.782024
