19
Iteration:  1297charge 0 multiplicity 1
 O         0.221109        -0.367602         0.493052
 C        -0.596432         0.713210         0.137017
 C        -2.162407         0.563105         0.330540
 C        -2.148478         2.046040         0.311558
 C        -1.812469         2.438011        -1.122318
 C        -0.524923         1.562104        -1.203943
 O        -2.882118         2.730080         1.377548
 C        -1.677237         2.441270         2.146976
 C        -0.777958         2.039030         0.960836
 H         0.943840        -0.278606        -0.179854
 H        -2.653750        -0.061337        -0.404984
 H        -2.150567         0.190433         1.365421
 H        -2.626681         2.150859        -1.861114
 H        -1.614115         3.484093        -1.115480
 H        -0.807120         0.790459        -1.996880
 H         0.396620         2.038357        -1.504273
 H        -1.240618         3.392472         2.441295
 H        -1.829556         1.775547         3.070675
 H        -0.033015         2.723817         0.674072
