19
Iteration:  3775charge 0 multiplicity 1
 O         0.310359        -0.331936         0.419697
 C        -0.621199         0.777043         0.161564
 C        -2.163313         0.491808         0.222524
 C        -2.056296         2.234566         0.285997
 C        -1.814990         2.552579        -1.204516
 C        -0.689727         1.452621        -1.300506
 O        -2.790106         2.816322         1.426320
 C        -1.779033         2.177122         2.297423
 C        -0.797640         2.025214         1.113139
 H         1.242251        -0.053781         0.462348
 H        -2.621730        -0.000218        -0.710421
 H        -2.694132        -0.027718         1.039715
 H        -2.498624         2.476185        -1.952612
 H        -1.190423         3.468924        -1.368244
 H        -0.697167         0.756526        -2.054508
 H         0.289123         1.938998        -1.305543
 H        -1.431831         2.856381         3.045890
 H        -2.163145         1.176060         2.618935
 H        -0.077645         2.773759         0.925277
