19
Iteration:  4767
 O         0.386944        -0.152827         0.410892
 C        -0.704522         0.729766         0.240255
 C        -2.264607         0.628232         0.230911
 C        -2.082106         2.167414         0.231570
 C        -1.627177         2.588971        -1.157113
 C        -0.574442         1.434295        -1.231535
 O        -2.902354         2.702298         1.441461
 C        -1.752643         2.153532         2.223018
 C        -0.794756         1.970935         0.991969
 H         0.179179        -1.097432         0.474114
 H        -2.546955         0.176807        -0.798529
 H        -2.676979         0.251948         1.122913
 H        -2.534627         2.625129        -1.747510
 H        -1.247142         3.617329        -1.335600
 H        -0.929159         0.611326        -1.858125
 H         0.501604         1.759893        -1.326715
 H        -1.401208         2.919360         2.836604
 H        -2.077793         1.272111         2.835706
 H         0.002738         2.646059         0.952123
