19
Iteration:  3834charge 0 multiplicity 1
 O         0.229932        -0.470438         0.287549
 C        -0.598055         0.746013         0.199992
 C        -2.106807         0.569526         0.166427
 C        -2.113902         2.137874         0.292953
 C        -1.804144         2.551737        -1.131938
 C        -0.537559         1.515868        -1.255936
 O        -2.920695         2.692177         1.444634
 C        -1.720497         2.441907         2.312020
 C        -0.787595         2.031727         1.087522
 H         1.055895        -0.436623         0.798658
 H        -2.494620         0.165292        -0.731181
 H        -2.589231         0.229408         1.101100
 H        -2.413782         2.233351        -2.045521
 H        -1.682211         3.565486        -1.215457
 H        -0.843908         0.836255        -2.158892
 H         0.526284         1.827071        -1.425749
 H        -1.364683         3.313234         2.984744
 H        -1.808563         1.639726         3.035037
 H         0.098616         2.780419         1.028070
