19
Iteration:  1362
 O         0.454421        -0.229952         0.512477
 C        -0.668883         0.727720         0.181007
 C        -2.235648         0.502015         0.348707
 C        -2.056021         2.150257         0.290890
 C        -1.892323         2.392968        -1.152966
 C        -0.653734         1.442924        -1.359873
 O        -2.775580         2.919061         1.302147
 C        -1.776893         2.299625         2.258568
 C        -0.743977         1.978939         1.041542
 H         0.629418        -0.877437        -0.173810
 H        -2.856834         0.108570        -0.455965
 H        -2.419437         0.031875         1.351449
 H        -2.834529         2.350198        -1.780569
 H        -1.436462         3.341417        -1.087713
 H        -0.733725         0.618897        -2.107931
 H         0.306115         1.894996        -1.585949
 H        -1.372964         3.040927         2.926157
 H        -2.320002         1.367377         2.711061
 H        -0.067705         2.818556         1.018155
