19
Iteration:  2248charge 0 multiplicity 1
 O         0.389787        -0.175674         0.295051
 C        -0.650960         0.704020         0.151536
 C        -2.175535         0.492057         0.347317
 C        -2.149416         2.066982         0.318715
 C        -1.843751         2.333702        -1.112057
 C        -0.640985         1.315301        -1.248206
 O        -2.758621         2.975852         1.392361
 C        -1.679491         2.461297         2.242933
 C        -0.809923         1.994094         1.083712
 H         0.076400        -1.082667         0.148154
 H        -2.753974         0.066219        -0.576648
 H        -2.359940         0.092469         1.343348
 H        -2.698100         2.058419        -1.753138
 H        -1.531210         3.374148        -1.363726
 H        -1.032786         0.506438        -1.915701
 H         0.222346         1.816422        -1.640173
 H        -1.243628         3.280046         2.762937
 H        -1.979772         1.602343         2.878781
 H         0.028791         2.731785         0.852219
