19
Iteration:   228
 O         0.455860        -0.169420         0.397267
 C        -0.652300         0.658759         0.212857
 C        -2.159449         0.410899         0.525989
 C        -2.125327         2.097043         0.283021
 C        -1.965809         2.361602        -1.218797
 C        -0.806032         1.373578        -1.324544
 O        -2.716073         2.981360         1.327002
 C        -1.658517         2.375136         2.198230
 C        -0.734353         2.008429         0.946666
 H         0.627494        -0.153506         1.349700
 H        -2.697735        -0.153831        -0.186392
 H        -2.351150         0.135371         1.581004
 H        -2.823218         2.060924        -1.821321
 H        -1.711826         3.444793        -1.463841
 H        -1.010851         0.544095        -2.071999
 H         0.127629         1.854230        -1.589263
 H        -1.233866         3.168883         2.811229
 H        -2.055035         1.548092         2.840371
 H        -0.059526         2.787069         0.614375
