19
Iteration:  3263
 O         0.313517        -0.300566         0.179471
 C        -0.612437         0.744718         0.150858
 C        -2.174453         0.610881         0.388198
 C        -2.094915         2.200627         0.331969
 C        -1.707742         2.556651        -1.144006
 C        -0.566454         1.384667        -1.200040
 O        -2.837432         2.735854         1.357356
 C        -1.765968         2.243732         2.306858
 C        -0.832075         2.051433         1.043370
 H         0.433216        -0.636355         1.083979
 H        -2.814295         0.086307        -0.366447
 H        -2.680192         0.188899         1.347659
 H        -2.502762         2.327102        -1.852582
 H        -1.414188         3.668379        -1.407990
 H        -0.932578         0.689563        -1.941163
 H         0.478876         1.689143        -1.453472
 H        -1.511075         2.981028         3.033240
 H        -2.094477         1.252176         2.567410
 H        -0.108511         2.924003         1.004429
