19
Iteration:   975charge 0 multiplicity 1
 O         0.468920        -0.102036         0.425596
 C        -0.638431         0.745864         0.233145
 C        -2.176939         0.516850         0.275892
 C        -2.111668         2.166838         0.268876
 C        -1.817678         2.442119        -1.128301
 C        -0.717179         1.213187        -1.250687
 O        -2.910665         2.853124         1.347385
 C        -1.686639         2.344218         2.208133
 C        -0.705347         1.976808         1.098495
 H         0.506053        -0.774601        -0.276369
 H        -2.711005         0.137361        -0.570920
 H        -2.652462         0.233130         1.180224
 H        -2.678542         2.143692        -1.822519
 H        -1.579111         3.464695        -1.409576
 H        -1.222752         0.459605        -1.823303
 H         0.318024         1.500953        -1.552489
 H        -1.238782         3.183048         2.851069
 H        -2.115384         1.654139         2.920529
 H         0.113335         2.764864         0.815301
