19
Iteration:  1446
 O         0.316070        -0.282861         0.398240
 C        -0.595873         0.774574         0.219658
 C        -2.160832         0.537067         0.396540
 C        -2.133693         2.019921         0.259483
 C        -1.771271         2.423758        -1.120887
 C        -0.703719         1.474763        -1.295884
 O        -2.821745         2.747025         1.290949
 C        -1.727610         2.437877         2.222308
 C        -0.710945         2.053868         1.072764
 H        -0.137398        -1.127071         0.150482
 H        -2.518274        -0.064658        -0.429790
 H        -2.449796         0.071932         1.354261
 H        -2.611731         2.342419        -1.795149
 H        -1.459231         3.518793        -1.293009
 H        -0.783577         0.786395        -2.081195
 H         0.320022         1.979078        -1.305151
 H        -1.395663         3.381677         2.629369
 H        -1.843899         1.810645         3.077135
 H         0.038636         2.857299         0.757969
