19
Iteration:  1457
 O         0.381371        -0.263793         0.375306
 C        -0.708889         0.704702         0.174632
 C        -2.156400         0.451067         0.339927
 C        -2.106389         2.072110         0.342594
 C        -1.853704         2.457645        -1.062964
 C        -0.581176         1.402689        -1.224713
 O        -2.810854         2.826549         1.265753
 C        -1.697594         2.442425         2.188212
 C        -0.744273         2.077430         1.055045
 H         0.005976        -1.121596         0.097261
 H        -2.775838        -0.109532        -0.341970
 H        -2.445056         0.264881         1.395413
 H        -2.615462         2.132542        -1.756582
 H        -1.631950         3.586774        -1.028723
 H        -0.818681         0.773477        -2.036612
 H         0.417001         1.894995        -1.479924
 H        -1.399196         3.302685         2.766252
 H        -2.113102         1.618042         2.722596
 H        -0.143977         3.004854         0.791118
