19
Iteration:  4525
 O         0.358355        -0.251065         0.147393
 C        -0.668281         0.701008         0.199433
 C        -2.179440         0.520308         0.288293
 C        -2.096399         2.202077         0.313884
 C        -1.676226         2.499463        -1.096619
 C        -0.591365         1.389704        -1.286428
 O        -2.873572         2.846225         1.371263
 C        -1.808921         2.320770         2.333001
 C        -0.814656         1.984533         1.180192
 H         0.641182        -0.668314         0.982493
 H        -2.609482         0.042165        -0.607496
 H        -2.538256        -0.189935         1.120658
 H        -2.402911         2.268311        -1.877972
 H        -1.297895         3.544080        -1.433811
 H        -0.792075         0.577775        -1.954263
 H         0.428096         1.911430        -1.536444
 H        -1.477150         3.155194         2.914533
 H        -2.237890         1.375776         2.834878
 H        -0.029564         2.699545         1.210912
