19
Iteration:  2769charge 0 multiplicity 1
 O         0.235105        -0.365448         0.290980
 C        -0.694183         0.777461         0.221198
 C        -2.118470         0.538858         0.455790
 C        -2.069949         2.163541         0.278698
 C        -1.910657         2.409823        -1.136823
 C        -0.697649         1.400739        -1.228480
 O        -2.780246         2.750353         1.292673
 C        -1.620893         2.381674         2.210793
 C        -0.653138         2.123454         1.004827
 H         0.949411        -0.139359         0.897696
 H        -2.577329        -0.064175        -0.287865
 H        -2.630347         0.145715         1.408991
 H        -2.755262         2.132190        -1.736481
 H        -1.737004         3.469269        -1.275743
 H        -1.030302         0.605215        -1.999024
 H         0.253398         1.819254        -1.514067
 H        -1.362777         3.343481         2.670222
 H        -1.835547         1.560710         2.939602
 H         0.046542         3.063840         1.016938
