19
Iteration:  4218
 O         0.226447        -0.264764         0.371749
 C        -0.664213         0.705224         0.149351
 C        -2.099757         0.488158         0.241863
 C        -2.037271         2.103756         0.315935
 C        -1.836853         2.615061        -1.070394
 C        -0.552745         1.509802        -1.265316
 O        -2.789885         2.690671         1.332660
 C        -1.746520         2.313242         2.236905
 C        -0.766199         2.038756         1.062475
 H        -0.318875        -0.857530         0.926685
 H        -2.694921        -0.120203        -0.518113
 H        -2.505300         0.222862         1.191089
 H        -2.617486         2.450859        -1.872987
 H        -1.285535         3.612412        -1.100973
 H        -0.883800         0.820522        -2.017006
 H         0.351344         2.042882        -1.447988
 H        -1.303616         3.206741         2.762603
 H        -1.978331         1.473961         2.893338
 H         0.116327         2.689621         0.997667
