19
Iteration:  1067
 O         0.362889        -0.208600         0.327313
 C        -0.617163         0.790443         0.223702
 C        -2.201767         0.549870         0.314449
 C        -2.183530         2.088792         0.300193
 C        -1.748751         2.379808        -1.198869
 C        -0.604091         1.335459        -1.282584
 O        -2.881259         2.767215         1.452435
 C        -1.710604         2.380822         2.193597
 C        -0.759767         2.089123         1.017864
 H         0.471739        -0.536831         1.244285
 H        -2.733320         0.053679        -0.532907
 H        -2.626213         0.216549         1.306089
 H        -2.456733         2.289283        -2.018573
 H        -1.293429         3.438308        -1.260906
 H        -0.898305         0.462582        -1.959871
 H         0.393146         1.775224        -1.582658
 H        -1.292651         3.186837         2.709798
 H        -2.002730         1.667719         3.002159
 H         0.058059         2.785032         0.932024
