19
Iteration:  4146charge 0 multiplicity 1
 O         0.318036        -0.316826         0.246293
 C        -0.632753         0.776932         0.188300
 C        -2.157243         0.544153         0.303123
 C        -2.048863         2.155072         0.270300
 C        -1.792120         2.535549        -1.186032
 C        -0.553677         1.466930        -1.253837
 O        -2.812915         2.836586         1.396383
 C        -1.845360         2.229342         2.250252
 C        -0.752182         1.929146         1.110644
 H         0.553285        -0.439587         1.186596
 H        -2.849503         0.028658        -0.398136
 H        -2.545139         0.211139         1.318667
 H        -2.579991         2.229474        -1.797967
 H        -1.580442         3.621984        -1.340798
 H        -0.686935         0.808874        -2.142615
 H         0.375194         2.192829        -1.318772
 H        -1.655787         3.013748         2.947932
 H        -2.426352         1.461304         2.944011
 H         0.124276         2.554948         1.253121
