19
Iteration:  2398
 O         0.250262        -0.361242         0.212681
 C        -0.624966         0.698385         0.189969
 C        -2.165459         0.607188         0.442391
 C        -2.176099         2.106503         0.372946
 C        -1.877494         2.388504        -1.136353
 C        -0.674367         1.370165        -1.247175
 O        -2.794459         2.735506         1.365613
 C        -1.687165         2.532697         2.240056
 C        -0.648015         2.084436         0.961614
 H         0.974819        -0.234610         0.833774
 H        -2.523370         0.015686        -0.435155
 H        -2.453823         0.138924         1.355453
 H        -2.607139         2.104083        -1.893123
 H        -1.575672         3.414835        -1.501292
 H        -0.754510         0.629795        -2.042535
 H         0.244391         1.998741        -1.210089
 H        -1.256246         3.410506         2.896160
 H        -1.869015         1.796302         3.038738
 H         0.182442         2.922205         0.955506
