19
Iteration:  3251charge 0 multiplicity 1
 O         0.406428        -0.277673         0.266625
 C        -0.656136         0.733786         0.150289
 C        -2.204164         0.533142         0.300788
 C        -2.082612         2.194525         0.258936
 C        -1.729773         2.540981        -1.154677
 C        -0.656684         1.395220        -1.304291
 O        -2.877232         2.842267         1.420155
 C        -1.766892         2.194138         2.299608
 C        -0.760973         2.031762         1.106795
 H         0.086806        -0.760047         1.056634
 H        -2.776869        -0.031235        -0.512044
 H        -2.428575         0.320564         1.336892
 H        -2.546940         2.470149        -1.931367
 H        -1.177690         3.578428        -1.174816
 H        -0.767563         0.612992        -2.066644
 H         0.315379         1.874799        -1.483761
 H        -1.425890         2.898951         3.047779
 H        -2.104292         1.412313         2.947639
 H         0.066206         2.756474         1.033161
