19
Iteration:  3143
 O         0.298319        -0.389221         0.244153
 C        -0.605032         0.752190         0.186200
 C        -2.144874         0.496974         0.322601
 C        -2.167695         2.104853         0.313743
 C        -1.859516         2.557189        -1.087558
 C        -0.612327         1.529771        -1.216475
 O        -2.755186         2.839292         1.315309
 C        -1.730675         2.359331         2.256114
 C        -0.807226         1.916971         1.106369
 H         1.173958        -0.162189         0.635113
 H        -2.513285        -0.162763        -0.532620
 H        -2.467553         0.124743         1.264349
 H        -2.541738         2.317676        -1.822699
 H        -1.438763         3.586344        -1.157122
 H        -0.911337         0.641740        -1.778909
 H         0.346108         1.928521        -1.593904
 H        -1.486028         3.243201         2.824766
 H        -2.156340         1.510823         2.857676
 H        -0.150217         2.806339         0.913988
