19
Iteration:  4578
 O         0.266488        -0.270766         0.376089
 C        -0.643152         0.724232         0.157744
 C        -2.138942         0.538795         0.189648
 C        -2.106434         2.149401         0.248970
 C        -1.798636         2.484109        -1.167773
 C        -0.518198         1.519566        -1.217982
 O        -2.880714         2.721253         1.476966
 C        -1.712259         2.292853         2.286673
 C        -0.762829         2.013462         1.048477
 H        -0.253514        -1.082640         0.376201
 H        -2.632676        -0.028348        -0.589647
 H        -2.548195         0.223935         1.214256
 H        -2.421228         2.461522        -2.032485
 H        -1.449631         3.486309        -1.291870
 H        -0.448163         0.866309        -2.071671
 H         0.455615         2.160890        -1.255566
 H        -1.329451         3.246963         2.636820
 H        -1.843683         1.537401         3.064895
 H        -0.118466         2.894227         0.894116
