19
Iteration:  4250
 O         0.348726        -0.309053         0.143353
 C        -0.664573         0.718646         0.175127
 C        -2.203557         0.533282         0.294964
 C        -2.082337         2.152298         0.325476
 C        -1.765506         2.415336        -1.198918
 C        -0.478151         1.446999        -1.133429
 O        -2.861803         2.875551         1.416307
 C        -1.742581         2.267182         2.329477
 C        -0.866603         2.097133         1.103634
 H         0.057213        -1.013496         0.765504
 H        -2.659132         0.112045        -0.652778
 H        -2.580592         0.283671         1.254981
 H        -2.465582         2.127643        -2.081161
 H        -1.329031         3.412898        -1.542155
 H        -0.580926         0.779634        -1.980618
 H         0.417605         1.953773        -1.357292
 H        -1.431175         3.138871         3.029990
 H        -2.131907         1.407552         2.847308
 H        -0.027465         2.813351         1.140972
