19
Iteration:  2209charge 0 multiplicity 1
 O         0.296474        -0.246440         0.477373
 C        -0.630264         0.778382         0.207693
 C        -2.145089         0.612987         0.367924
 C        -2.128059         2.144836         0.284067
 C        -1.919606         2.428038        -1.183046
 C        -0.708504         1.417963        -1.286097
 O        -2.798655         2.737488         1.398429
 C        -1.544500         2.326152         2.057558
 C        -0.707493         2.059457         0.991303
 H        -0.074810        -0.998164         0.980083
 H        -2.752459         0.012110        -0.237670
 H        -2.430795         0.357825         1.398615
 H        -2.714302         2.097804        -1.883866
 H        -1.681287         3.455645        -1.316450
 H        -0.906550         0.572253        -1.949721
 H         0.310501         1.796201        -1.516120
 H        -1.233148         3.077453         2.829369
 H        -1.800634         1.496188         2.783704
 H         0.143699         2.714504         0.763374
