19
Iteration:  1978charge 0 multiplicity 1
 O         0.395649        -0.296822         0.243181
 C        -0.638960         0.750406         0.238051
 C        -2.208539         0.537544         0.396061
 C        -2.174990         2.159261         0.328512
 C        -1.896198         2.337408        -1.171415
 C        -0.636749         1.321553        -1.221428
 O        -2.742004         2.998054         1.333484
 C        -1.667874         2.339621         2.246950
 C        -0.797369         2.080764         1.037788
 H         0.273950        -1.028936         0.842376
 H        -2.730621         0.039840        -0.427507
 H        -2.332820        -0.035699         1.303037
 H        -2.600323         1.935231        -1.896296
 H        -1.630710         3.391304        -1.452297
 H        -0.793712         0.422273        -1.847690
 H         0.281619         1.831359        -1.564602
 H        -1.178925         3.106926         2.892389
 H        -1.991917         1.567093         3.023275
 H        -0.083754         2.890918         0.780372
