19
Iteration:  1137
 O         0.302923        -0.305484         0.296086
 C        -0.583813         0.746760         0.241370
 C        -2.153500         0.553746         0.323596
 C        -2.090847         2.123454         0.296877
 C        -1.848971         2.347302        -1.174426
 C        -0.554605         1.409835        -1.246139
 O        -2.841667         2.802049         1.409900
 C        -1.770499         2.367672         2.243325
 C        -0.713118         2.150614         0.973452
 H         0.249385        -0.706457         1.188232
 H        -2.653106        -0.038894        -0.476480
 H        -2.605507         0.368089         1.305476
 H        -2.703897         1.905007        -1.753671
 H        -1.754715         3.352471        -1.507616
 H        -0.686183         0.592942        -2.046526
 H         0.388487         1.947653        -1.335177
 H        -1.536892         3.285169         2.941383
 H        -1.926527         1.503134         2.873422
 H        -0.142663         3.100542         0.752338
