19
Iteration:  2527
 O         0.351206        -0.289533         0.390688
 C        -0.692882         0.712883         0.255033
 C        -2.176273         0.431101         0.314365
 C        -2.254012         2.033509         0.359864
 C        -1.951063         2.384330        -1.086787
 C        -0.637135         1.464768        -1.286579
 O        -2.724482         2.827314         1.377499
 C        -1.568256         2.596118         2.186145
 C        -0.707604         1.997005         0.962710
 H        -0.116939        -1.085102         0.046935
 H        -2.524727        -0.183270        -0.487370
 H        -2.316475         0.023299         1.263126
 H        -2.768534         2.150518        -1.765245
 H        -1.721505         3.441252        -1.108402
 H        -0.684340         0.836861        -2.159617
 H         0.246165         2.188389        -1.422243
 H        -1.106186         3.528646         2.591769
 H        -1.694269         1.822879         2.886997
 H        -0.071699         2.881284         0.551659
