19
Iteration:  2715charge 0 multiplicity 1
 O         0.411066        -0.162674         0.332643
 C        -0.718038         0.729124         0.231023
 C        -2.198955         0.491031         0.317219
 C        -2.166588         2.076315         0.310886
 C        -1.909672         2.416217        -1.121924
 C        -0.738068         1.309186        -1.191477
 O        -2.709259         2.890784         1.370554
 C        -1.588190         2.433460         2.192444
 C        -0.723014         1.980815         0.958395
 H         0.191121        -1.014153         0.730479
 H        -2.685093         0.001764        -0.503511
 H        -2.556078         0.041957         1.316264
 H        -2.781504         2.451222        -1.752839
 H        -1.506704         3.444651        -1.114227
 H        -0.916668         0.409602        -1.888426
 H         0.173498         1.759195        -1.536471
 H        -1.320565         3.255151         2.835777
 H        -1.775468         1.534246         2.805094
 H        -0.113919         2.887353         0.634598
