19
Iteration:   861charge 0 multiplicity 1
 O         0.353521        -0.317630         0.229106
 C        -0.656553         0.718332         0.182584
 C        -2.129112         0.424031         0.437669
 C        -2.162198         2.103234         0.343136
 C        -1.851519         2.370051        -1.099139
 C        -0.572520         1.328029        -1.235559
 O        -2.838469         2.816243         1.303488
 C        -1.712115         2.549103         2.238645
 C        -0.768741         2.176343         0.986433
 H         0.602779        -0.352654         1.165294
 H        -2.762846        -0.226671        -0.227190
 H        -2.343749         0.158898         1.487755
 H        -2.635825         2.297795        -1.791835
 H        -1.478702         3.422480        -1.194585
 H        -0.780791         0.551801        -1.988501
 H         0.310292         1.825272        -1.475273
 H        -1.447439         3.389612         2.856673
 H        -1.934148         1.598050         2.811909
 H        -0.117817         2.973156         0.717291
