19
Iteration:  2385charge 0 multiplicity 1
 O         0.257690        -0.390668         0.172187
 C        -0.611219         0.794417         0.270188
 C        -2.085379         0.507335         0.383852
 C        -2.087825         2.113290         0.270072
 C        -1.866096         2.381828        -1.169725
 C        -0.706880         1.341315        -1.209000
 O        -2.836493         2.840305         1.381415
 C        -1.647529         2.462537         2.307250
 C        -0.760166         2.121649         1.059127
 H         1.112657        -0.176770         0.607619
 H        -2.565521        -0.055977        -0.386764
 H        -2.545798         0.239906         1.311650
 H        -2.745078         2.186063        -1.774217
 H        -1.471934         3.392740        -1.301707
 H        -0.966791         0.491188        -1.808508
 H         0.213986         1.686804        -1.747698
 H        -1.294265         3.455235         2.747189
 H        -1.957586         1.672070         2.973278
 H         0.077290         2.889367         0.716169
