19
Iteration:  1621
 O         0.301304        -0.229809         0.434634
 C        -0.603428         0.833184         0.137710
 C        -2.169082         0.492907         0.440470
 C        -2.152323         2.060225         0.289706
 C        -1.861142         2.366432        -1.131193
 C        -0.576817         1.395311        -1.245000
 O        -2.767123         2.948845         1.307869
 C        -1.686077         2.249840         2.226324
 C        -0.779086         2.113422         1.013610
 H         0.164966        -1.031039        -0.133479
 H        -2.587174         0.014198        -0.434134
 H        -2.442574        -0.016062         1.357260
 H        -2.561358         1.911311        -1.794885
 H        -1.758019         3.429960        -1.303887
 H        -0.978167         0.657457        -1.944511
 H         0.410767         1.719159        -1.635986
 H        -1.241638         3.067203         2.848668
 H        -2.206159         1.406082         2.645439
 H         0.011917         2.860981         0.880555
