19
Iteration:  3007charge 0 multiplicity 1
 O         0.379342        -0.230965         0.312300
 C        -0.641938         0.768842         0.208920
 C        -2.258991         0.561803         0.262144
 C        -2.121903         2.060604         0.385248
 C        -1.799385         2.408339        -1.105210
 C        -0.651182         1.347459        -1.290710
 O        -2.803928         2.838103         1.383344
 C        -1.653231         2.424029         2.300724
 C        -0.826845         1.966830         1.039560
 H         0.677749        -0.276081        -0.603675
 H        -2.675937         0.202204        -0.637370
 H        -2.697256        -0.054546         1.195758
 H        -2.697295         2.080979        -1.749815
 H        -1.309803         3.352505        -1.235667
 H        -0.684551         0.494745        -1.998916
 H         0.256420         1.959240        -1.297361
 H        -1.097248         3.307382         2.707014
 H        -2.094676         1.714611         2.961010
 H        -0.023641         2.697612         1.065078
