19
Iteration:  4778
 O         0.390326        -0.139897         0.313606
 C        -0.662114         0.766208         0.181770
 C        -2.245421         0.591257         0.281065
 C        -2.094230         2.112800         0.250093
 C        -1.630891         2.576893        -1.170848
 C        -0.598686         1.369998        -1.218518
 O        -2.886784         2.720942         1.422952
 C        -1.798203         2.203047         2.226257
 C        -0.792014         2.007904         1.124545
 H        -0.049163        -1.006529         0.514735
 H        -2.849051         0.154227        -0.637004
 H        -2.871251         0.320801         1.075277
 H        -2.242663         2.574895        -2.069679
 H        -0.994614         3.448851        -0.941642
 H        -0.621199         0.660107        -2.075127
 H         0.455075         1.754063        -1.380600
 H        -1.451410         2.886797         2.934405
 H        -2.085467         1.263533         2.776465
 H        -0.067565         2.761283         1.064938
