19
Iteration:   756
 O         0.288112        -0.358527         0.323015
 C        -0.619943         0.789847         0.201426
 C        -2.171056         0.525078         0.463835
 C        -2.186644         1.990811         0.264322
 C        -1.875329         2.320571        -1.122281
 C        -0.617344         1.353314        -1.295020
 O        -2.821027         2.802724         1.329199
 C        -1.660105         2.623647         2.235827
 C        -0.767115         2.089631         1.021108
 H         1.182663        -0.057899         0.508184
 H        -2.676694        -0.018996        -0.282916
 H        -2.177781         0.115711         1.467363
 H        -2.739209         2.021518        -1.850627
 H        -1.535942         3.303150        -1.280961
 H        -0.774836         0.465871        -2.015668
 H         0.280377         2.003338        -1.618872
 H        -1.176675         3.541548         2.710752
 H        -1.731795         1.991898         3.062869
 H         0.056642         2.852027         0.770190
