19
Iteration:    64charge 0 multiplicity 1
 O         0.349872        -0.327909         0.320361
 C        -0.536278         0.730199         0.180665
 C        -2.051979         0.393350         0.275803
 C        -2.100667         1.994725         0.317885
 C        -1.915431         2.391716        -1.153156
 C        -0.683114         1.384080        -1.301506
 O        -2.885325         2.815628         1.425022
 C        -1.673716         2.688395         2.219681
 C        -0.766169         2.097052         1.085335
 H         0.240262        -0.629859         1.243674
 H        -2.557490        -0.178955        -0.498760
 H        -2.441415         0.123641         1.235383
 H        -2.783688         2.108947        -1.814594
 H        -1.590485         3.419345        -1.322681
 H        -0.912685         0.502606        -2.004692
 H         0.086605         1.945461        -1.717757
 H        -1.320488         3.547327         2.825172
 H        -1.851984         2.005823         3.055900
 H        -0.149507         2.842449         0.711752
