19
Iteration:  2657charge 0 multiplicity 1
 O         0.239897        -0.345781         0.349446
 C        -0.615395         0.836822         0.232585
 C        -2.099696         0.499796         0.418556
 C        -2.171636         2.122891         0.357051
 C        -1.859931         2.351010        -1.240010
 C        -0.637606         1.410881        -1.263156
 O        -2.841834         2.787213         1.455734
 C        -1.491284         2.448323         2.220128
 C        -0.755949         2.144842         0.939286
 H        -0.320327        -1.035621        -0.049869
 H        -2.636095        -0.022546        -0.504531
 H        -2.385128        -0.084949         1.276812
 H        -2.796482         1.959143        -1.678371
 H        -1.855402         3.400260        -1.518418
 H        -0.739759         0.588851        -1.923086
 H         0.346689         1.966018        -1.539016
 H        -1.359216         3.442808         2.749999
 H        -1.509942         1.598240         2.898001
 H        -0.112121         3.000078         0.579224
