19
Iteration:   555
 O         0.238917        -0.338628         0.502132
 C        -0.620539         0.803389         0.078784
 C        -2.072559         0.506336         0.404783
 C        -2.205614         2.101482         0.296724
 C        -1.976750         2.246633        -1.197049
 C        -0.651012         1.308653        -1.314328
 O        -2.815261         2.907686         1.462094
 C        -1.516129         2.488508         2.175938
 C        -0.737834         2.159670         0.939940
 H         1.057345         0.013007         0.883678
 H        -2.625422        -0.157035        -0.249388
 H        -2.151492         0.091407         1.432275
 H        -2.742724         1.914999        -1.794756
 H        -1.672369         3.271400        -1.620432
 H        -0.976385         0.443431        -1.864766
 H         0.214708         1.739528        -1.769790
 H        -1.215997         3.245175         2.776181
 H        -1.746665         1.573791         2.734909
 H        -0.140252         3.032675         0.570558
