19
Iteration:  4589charge 0 multiplicity 1
 O         0.282842        -0.293854         0.424481
 C        -0.658301         0.775444         0.156896
 C        -2.186529         0.618398         0.151714
 C        -2.194469         2.150245         0.265021
 C        -1.799732         2.532515        -1.282855
 C        -0.492623         1.490051        -1.173382
 O        -2.796717         2.638380         1.485575
 C        -1.649458         2.309242         2.308305
 C        -0.843904         2.067392         1.028680
 H        -0.097132        -1.169593         0.325364
 H        -2.565242         0.219170        -0.771606
 H        -2.489176        -0.004494         1.058722
 H        -2.532854         2.029421        -1.858882
 H        -1.561243         3.554007        -1.447811
 H        -0.498472         0.722154        -1.920723
 H         0.457498         2.156374        -1.265566
 H        -1.290037         3.121997         2.951515
 H        -1.961678         1.537787         3.023070
 H         0.078704         2.649838         1.035036
