19
Iteration:  3104charge 0 multiplicity 1
 O         0.370980        -0.200555         0.319707
 C        -0.670502         0.754669         0.153253
 C        -2.284684         0.586420         0.267284
 C        -2.190250         2.095478         0.284623
 C        -1.761957         2.497473        -1.105482
 C        -0.578380         1.389400        -1.228125
 O        -2.777392         2.771962         1.418966
 C        -1.626983         2.295614         2.255981
 C        -0.806515         1.970363         1.005381
 H         0.334127        -0.362143         1.271996
 H        -2.863252         0.198625        -0.518380
 H        -2.619881         0.050927         1.253577
 H        -2.629334         2.287085        -1.876515
 H        -1.536221         3.542709        -1.262217
 H        -0.917745         0.733641        -2.035545
 H         0.345281         1.945995        -1.555110
 H        -1.163423         2.989152         2.999684
 H        -1.963142         1.368431         2.722164
 H        -0.028690         2.677601         0.722434
