19
Iteration:  1517
 O         0.305293        -0.238604         0.572682
 C        -0.661542         0.758653         0.159085
 C        -2.120110         0.617207         0.334235
 C        -2.131772         2.193637         0.336475
 C        -1.866646         2.406470        -1.180028
 C        -0.696897         1.330650        -1.285504
 O        -2.867930         2.776181         1.377025
 C        -1.652443         2.266303         2.156604
 C        -0.649309         2.093062         0.952761
 H         0.673241        -0.761353        -0.188631
 H        -2.637965         0.124899        -0.549727
 H        -2.396434         0.101770         1.234915
 H        -2.628400         2.303028        -1.992891
 H        -1.508513         3.389363        -1.378306
 H        -0.751534         0.588291        -2.147119
 H         0.209251         1.886394        -1.309447
 H        -1.362963         3.099255         2.834668
 H        -1.991633         1.540877         2.926727
 H         0.157661         2.784139         0.840163
