19
Iteration:   375
 O         0.401694        -0.109553         0.583701
 C        -0.660571         0.763542         0.175539
 C        -2.213494         0.647812         0.453133
 C        -2.111843         2.137209         0.299842
 C        -1.906715         2.312250        -1.171683
 C        -0.848516         1.167583        -1.335752
 O        -2.825498         2.743332         1.351700
 C        -1.426452         2.411793         2.189164
 C        -0.762314         2.091693         0.897867
 H         0.843777        -0.528005        -0.187973
 H        -3.072906         0.190778        -0.236674
 H        -2.432057         0.305784         1.479142
 H        -2.845880         2.171056        -1.843212
 H        -1.522209         3.260361        -1.501519
 H        -1.094220         0.393904        -2.046316
 H         0.119391         1.549461        -1.766434
 H        -1.125516         3.386993         2.684821
 H        -1.573950         1.635682         2.935407
 H         0.064080         2.761569         0.569296
