19
Iteration:  2405charge 0 multiplicity 1
 O         0.266269        -0.360537         0.254579
 C        -0.696266         0.737160         0.133176
 C        -2.188436         0.576605         0.446172
 C        -2.095471         2.088831         0.314411
 C        -1.892105         2.385750        -1.144964
 C        -0.644317         1.408798        -1.243255
 O        -2.803827         2.739611         1.409453
 C        -1.631935         2.522922         2.200126
 C        -0.658423         2.045397         1.000824
 H         0.898482        -0.286190         0.994532
 H        -2.852164         0.137009        -0.277927
 H        -2.351143         0.102380         1.421804
 H        -2.690639         2.050845        -1.830163
 H        -1.737034         3.439422        -1.306010
 H        -0.565177         0.774622        -2.120276
 H         0.310405         1.995526        -1.255480
 H        -1.524099         3.501950         2.668106
 H        -1.875746         1.795522         2.978665
 H         0.088187         2.876135         0.756919
