19
Iteration:  4652
 O         0.392639        -0.272741         0.410286
 C        -0.625778         0.734917         0.179017
 C        -2.187987         0.443214         0.278477
 C        -2.141136         2.099571         0.264969
 C        -1.688478         2.543679        -1.041922
 C        -0.658173         1.465789        -1.303697
 O        -2.788661         2.827606         1.328466
 C        -1.814462         2.310580         2.264117
 C        -0.865907         2.006721         1.060544
 H         0.737353        -0.728434        -0.374417
 H        -2.573145         0.071365        -0.655129
 H        -2.635256         0.149861         1.259126
 H        -2.567641         2.760662        -1.721929
 H        -1.285401         3.548624        -0.957007
 H        -0.994806         0.797184        -2.127012
 H         0.297970         1.862265        -1.540521
 H        -1.370615         3.009419         3.117711
 H        -2.188805         1.427423         2.816257
 H         0.119680         2.616840         1.086437
