19
Iteration:  3250
 O         0.410221        -0.272180         0.277060
 C        -0.671550         0.733087         0.154550
 C        -2.199629         0.533750         0.291878
 C        -2.086239         2.184035         0.254908
 C        -1.729385         2.533132        -1.153024
 C        -0.657206         1.403127        -1.310800
 O        -2.873563         2.849811         1.427037
 C        -1.769634         2.191146         2.298181
 C        -0.749631         2.027445         1.109878
 H         0.083309        -0.795085         1.046914
 H        -2.769978        -0.041504        -0.527208
 H        -2.407266         0.296892         1.283021
 H        -2.575035         2.516178        -1.942335
 H        -1.169968         3.554838        -1.175290
 H        -0.782091         0.607971        -2.084350
 H         0.283374         1.897795        -1.501640
 H        -1.414162         2.933759         3.025228
 H        -2.110442         1.433943         2.951988
 H         0.056379         2.734159         1.043803
