19
Iteration:  3662charge 0 multiplicity 1
 O         0.241499        -0.418816         0.350786
 C        -0.628834         0.792850         0.271626
 C        -2.127454         0.602129         0.286569
 C        -2.151395         2.142844         0.209843
 C        -1.773772         2.581724        -1.216592
 C        -0.646458         1.588400        -1.261047
 O        -2.837773         2.704684         1.413246
 C        -1.716566         2.208234         2.233358
 C        -0.715733         2.016774         1.089150
 H         1.061192        -0.216378         0.831973
 H        -2.560692         0.078274        -0.598776
 H        -2.457484         0.102476         1.234584
 H        -2.432126         2.492823        -2.151719
 H        -1.311596         3.563017        -1.053631
 H        -0.921620         0.685961        -1.937421
 H         0.298411         1.985569        -1.501732
 H        -1.604449         3.078115         2.916817
 H        -2.010021         1.230432         2.708180
 H         0.014470         2.870564         1.109697
