19
Iteration:   770
 O         0.214679        -0.322984         0.423746
 C        -0.614922         0.731731         0.203775
 C        -2.095289         0.378638         0.386145
 C        -2.153646         2.061737         0.372471
 C        -1.854030         2.307793        -1.212838
 C        -0.623946         1.396826        -1.255492
 O        -2.813361         2.857777         1.419965
 C        -1.580774         2.538054         2.179320
 C        -0.794865         2.185987         0.941482
 H         1.124892        -0.056717         0.118227
 H        -2.569587        -0.259354        -0.389021
 H        -2.537158         0.117176         1.365712
 H        -2.622681         1.948721        -1.897257
 H        -1.768017         3.402991        -1.364385
 H        -0.800656         0.637285        -2.006800
 H         0.391973         1.807211        -1.519433
 H        -1.365183         3.522666         2.631446
 H        -1.926758         1.723877         2.831773
 H        -0.321802         3.034121         0.499632
