19
Iteration:  3373charge 0 multiplicity 1
 O         0.323690        -0.350351         0.363265
 C        -0.636768         0.751436         0.156003
 C        -2.147057         0.669971         0.267110
 C        -2.059483         2.205268         0.400125
 C        -1.707213         2.536943        -1.217160
 C        -0.638510         1.351158        -1.383021
 O        -2.903217         2.775930         1.389782
 C        -1.832722         2.164583         2.336410
 C        -0.749701         2.057893         1.097194
 H         1.100589        -0.094418        -0.176079
 H        -2.659341         0.455215        -0.609334
 H        -2.401745         0.231173         1.327388
 H        -2.590409         2.461180        -1.846412
 H        -1.246619         3.586456        -0.948924
 H        -0.897271         0.524936        -1.998221
 H         0.316885         1.824889        -1.753286
 H        -1.549060         2.860812         3.081156
 H        -2.161901         1.263544         2.875979
 H         0.033111         2.871405         1.258706
