19
Iteration:   440
 O         0.411823        -0.220384         0.348550
 C        -0.674448         0.701413         0.225704
 C        -2.135786         0.559174         0.488837
 C        -2.098042         2.085706         0.321153
 C        -2.032825         2.228163        -1.219036
 C        -0.741674         1.336615        -1.273047
 O        -2.763050         2.824149         1.298125
 C        -1.599916         2.617720         2.224487
 C        -0.651947         2.052761         1.021235
 H        -0.017825        -1.077004         0.413712
 H        -2.923198         0.213632        -0.243153
 H        -2.472836         0.307777         1.496209
 H        -2.965026         1.800794        -1.789828
 H        -1.970793         3.230162        -1.598394
 H        -0.775400         0.583079        -2.070567
 H         0.285498         1.783892        -1.369847
 H        -1.277409         3.630971         2.666717
 H        -1.793741         1.781997         2.865001
 H         0.175589         2.756806         0.948665
