19
Iteration:   912
 O         0.197016        -0.341766         0.424933
 C        -0.629447         0.750800         0.202916
 C        -2.110452         0.480122         0.279876
 C        -2.129363         2.047407         0.315666
 C        -1.914935         2.319487        -1.212207
 C        -0.614475         1.427524        -1.192507
 O        -2.795831         2.739313         1.380680
 C        -1.607796         2.546691         2.242695
 C        -0.747772         2.130700         0.975724
 H         1.104422         0.037427         0.479590
 H        -2.581251         0.065014        -0.634993
 H        -2.527090         0.031014         1.158584
 H        -2.769543         1.984809        -1.791406
 H        -1.780641         3.445202        -1.368515
 H        -0.426201         0.858548        -2.091111
 H         0.203656         2.244225        -1.140505
 H        -1.224135         3.448537         2.668038
 H        -1.768543         1.733349         2.933009
 H        -0.185391         2.993404         0.694144
