19
Iteration:  1307
 O         0.273278        -0.345143         0.430732
 C        -0.662711         0.770620         0.159417
 C        -2.155102         0.563841         0.399229
 C        -2.211279         2.071807         0.244402
 C        -1.788876         2.442823        -1.138625
 C        -0.542781         1.474390        -1.251491
 O        -2.887593         2.693719         1.393538
 C        -1.662151         2.507868         2.187860
 C        -0.713736         2.008081         0.989093
 H         0.954958        -0.539237        -0.249130
 H        -2.743677        -0.025536        -0.294145
 H        -2.497618         0.306413         1.416567
 H        -2.403147         2.284909        -2.054611
 H        -1.542648         3.483923        -1.205095
 H        -0.603476         0.730217        -2.083685
 H         0.449242         1.926233        -1.211735
 H        -1.441522         3.318758         2.817387
 H        -1.999432         1.647953         2.939069
 H        -0.091126         2.856297         0.801500
