19
Iteration:   422
 O         0.339876        -0.242887         0.541369
 C        -0.621453         0.766871         0.137668
 C        -2.193004         0.481110         0.357392
 C        -2.129742         2.077260         0.339877
 C        -1.995928         2.233985        -1.101910
 C        -0.675017         1.343504        -1.308000
 O        -2.759431         2.872720         1.403356
 C        -1.523169         2.558000         2.187900
 C        -0.731818         2.108966         0.880512
 H         0.088605        -1.081594         0.140199
 H        -2.642672        -0.216152        -0.448737
 H        -2.374929        -0.007496         1.347595
 H        -2.870539         1.847041        -1.684403
 H        -1.872082         3.244497        -1.486616
 H        -0.774642         0.506341        -2.042306
 H         0.047631         1.960317        -1.786254
 H        -1.108961         3.490173         2.494987
 H        -1.748267         1.973079         3.109359
 H        -0.163387         3.023395         0.469534
