19
Iteration:  1187
 O         0.372000        -0.313469         0.383575
 C        -0.613008         0.683131         0.152316
 C        -2.158289         0.456036         0.297834
 C        -2.147389         2.076292         0.407780
 C        -1.832636         2.416716        -1.143190
 C        -0.613417         1.458227        -1.261551
 O        -2.852273         2.770282         1.348559
 C        -1.668054         2.575783         2.183016
 C        -0.769194         2.079555         1.036613
 H        -0.139480        -1.082058         0.666922
 H        -2.720685         0.109130        -0.580469
 H        -2.362341        -0.083558         1.217202
 H        -2.676739         2.277964        -1.836879
 H        -1.588621         3.497086        -1.287091
 H        -0.763640         0.749668        -2.064781
 H         0.311102         2.009266        -1.286229
 H        -1.363148         3.399648         2.721284
 H        -1.961707         1.732425         2.869161
 H        -0.002162         2.778691         0.931304
