19
Iteration:  2311charge 0 multiplicity 1
 O         0.214833        -0.279288         0.482965
 C        -0.620448         0.764491         0.162708
 C        -2.164863         0.575352         0.268660
 C        -2.125202         2.114981         0.333448
 C        -1.882650         2.350197        -1.217484
 C        -0.655791         1.347794        -1.305015
 O        -2.806410         2.764430         1.476657
 C        -1.522180         2.426890         2.273035
 C        -0.793524         2.137022         0.977993
 H         0.668942        -0.604705        -0.299902
 H        -2.731898        -0.005759        -0.515566
 H        -2.558324         0.000036         1.103799
 H        -2.750201         2.124382        -1.847071
 H        -1.478738         3.397910        -1.471346
 H        -0.561014         0.581332        -2.073995
 H         0.300747         1.929819        -1.555882
 H        -1.117271         3.381114         2.833500
 H        -1.585439         1.557794         3.009850
 H        -0.132294         2.922391         0.694639
