19
Iteration:  4934charge 0 multiplicity 1
 O         0.289232        -0.333832         0.279992
 C        -0.608528         0.699093         0.208580
 C        -2.159836         0.546498         0.165499
 C        -2.172713         2.111053         0.251358
 C        -1.706480         2.491607        -1.162247
 C        -0.454828         1.517916        -1.103140
 O        -2.880900         2.784940         1.424228
 C        -1.814058         2.289402         2.323423
 C        -0.871966         2.047556         1.090896
 H         1.057153        -0.151750        -0.289451
 H        -2.623260         0.080479        -0.712340
 H        -2.641721         0.064739         1.106675
 H        -2.321039         2.465616        -2.085361
 H        -1.290828         3.519465        -1.134426
 H        -0.502266         0.697956        -1.934434
 H         0.477938         2.036332        -1.068780
 H        -1.465678         3.055961         3.070586
 H        -2.187627         1.414453         2.858721
 H        -0.163706         2.803395         0.772227
