19
Iteration:   716charge 0 multiplicity 1
 O         0.408891        -0.211449         0.283756
 C        -0.633739         0.741070         0.256002
 C        -2.159784         0.491162         0.462296
 C        -2.162929         2.088074         0.314510
 C        -1.899867         2.322892        -1.182126
 C        -0.710923         1.279111        -1.293234
 O        -2.765932         2.857602         1.293584
 C        -1.636358         2.515580         2.230561
 C        -0.759709         2.099413         1.013502
 H         0.375605        -0.741204         1.122793
 H        -2.769084        -0.142806        -0.235056
 H        -2.449766         0.115990         1.478426
 H        -2.705317         2.203914        -1.899865
 H        -1.559309         3.398241        -1.291350
 H        -1.010570         0.394161        -1.862666
 H         0.276877         1.690739        -1.555264
 H        -1.430477         3.435307         2.855779
 H        -1.992672         1.673774         2.939350
 H        -0.036497         2.838441         0.721834
