19
Iteration:   922charge 0 multiplicity 1
 O         0.217072        -0.315537         0.497392
 C        -0.604473         0.794557         0.169530
 C        -2.070426         0.438504         0.337311
 C        -2.209607         2.155286         0.300741
 C        -1.883549         2.349747        -1.127117
 C        -0.624028         1.434811        -1.225737
 O        -2.806690         2.779387         1.385327
 C        -1.578930         2.424618         2.211737
 C        -0.847731         2.110410         0.890671
 H         1.141825        -0.163626         0.227697
 H        -2.619484         0.091051        -0.527894
 H        -2.262104        -0.148595         1.205490
 H        -2.642314         2.096753        -1.903946
 H        -1.362513         3.302941        -1.378622
 H        -0.606656         0.642075        -1.973083
 H         0.327797         2.066216        -1.436116
 H        -1.209239         3.277895         2.800183
 H        -1.921597         1.660795         2.865376
 H        -0.177791         2.901579         0.459506
