19
Iteration:  2739charge 0 multiplicity 1
 O         0.448061        -0.220843         0.237280
 C        -0.682909         0.697124         0.092587
 C        -2.250750         0.480725         0.403896
 C        -2.165419         2.126322         0.333819
 C        -1.768892         2.318182        -1.168949
 C        -0.686350         1.289613        -1.330856
 O        -2.782662         2.918301         1.416395
 C        -1.637646         2.454662         2.325707
 C        -0.791933         2.058029         1.039079
 H         0.437677        -0.569387         1.157613
 H        -2.829000        -0.096079        -0.317436
 H        -2.598386         0.184786         1.470879
 H        -2.636472         2.344502        -1.851815
 H        -1.492127         3.411699        -1.156113
 H        -1.121257         0.584360        -2.148453
 H         0.270386         1.557294        -1.731584
 H        -1.260858         3.296660         2.854188
 H        -2.044759         1.713638         3.073608
 H        -0.137243         2.967005         0.977207
