19
Iteration:  1223charge 0 multiplicity 1
 O         0.380721        -0.141549         0.349889
 C        -0.651788         0.760164         0.186629
 C        -2.207120         0.481805         0.385315
 C        -2.127232         2.115814         0.252285
 C        -1.753933         2.432720        -1.192746
 C        -0.695416         1.353054        -1.271491
 O        -2.745083         2.813321         1.384199
 C        -1.753463         2.324291         2.220954
 C        -0.786036         2.048946         1.035098
 H         0.474250        -0.712140         1.114650
 H        -3.037688         0.141675        -0.281527
 H        -2.475514         0.173148         1.434894
 H        -2.513648         2.216863        -2.009746
 H        -1.349183         3.421908        -1.263280
 H        -0.910933         0.482411        -2.009846
 H         0.311521         1.592302        -1.519933
 H        -1.550599         3.177223         2.925639
 H        -2.022669         1.470854         2.744387
 H         0.028636         2.740025         0.860677
