19
Iteration:   255
 O         0.366930        -0.097160         0.531062
 C        -0.669989         0.760187         0.143656
 C        -2.186496         0.526496         0.444284
 C        -2.193811         2.083778         0.254356
 C        -1.865438         2.366463        -1.164667
 C        -0.797116         1.237822        -1.331603
 O        -2.781321         2.717107         1.405589
 C        -1.461958         2.392485         2.231551
 C        -0.740211         2.167444         0.821529
 H        -0.059497        -0.728988         1.118706
 H        -2.679537        -0.123413        -0.347581
 H        -2.342741         0.375313         1.505427
 H        -2.676586         2.236491        -1.922767
 H        -1.560057         3.392373        -1.256939
 H        -1.070347         0.521208        -2.068379
 H         0.183926         1.649107        -1.681308
 H        -1.189658         3.394784         2.565265
 H        -1.527106         1.616128         2.968562
 H        -0.044730         2.980878         0.484599
