19
Iteration:  4796charge 0 multiplicity 1
 O         0.348655        -0.260234         0.221526
 C        -0.664344         0.757365         0.164628
 C        -2.173525         0.511743         0.242520
 C        -2.113279         2.101240         0.303870
 C        -1.619122         2.552510        -1.081242
 C        -0.536250         1.475722        -1.234344
 O        -2.855561         2.801794         1.320457
 C        -1.852299         2.262674         2.351971
 C        -0.849621         2.018480         1.094283
 H         0.151205        -1.008411         0.839770
 H        -2.564808        -0.061880        -0.578344
 H        -2.229756        -0.002680         1.260770
 H        -2.503175         2.499489        -1.771277
 H        -1.197052         3.569376        -1.156442
 H        -0.872743         0.702856        -1.861074
 H         0.533228         1.760286        -1.502170
 H        -1.726160         3.085391         3.157196
 H        -2.297328         1.444441         2.939174
 H        -0.061183         2.840705         1.028894
