19
Iteration:  2639
 O         0.344378        -0.231236         0.338804
 C        -0.679650         0.709161         0.200279
 C        -2.190000         0.513154         0.386922
 C        -2.141674         2.054581         0.265196
 C        -1.975351         2.407765        -1.141262
 C        -0.687527         1.364965        -1.196202
 O        -2.720916         2.781563         1.397582
 C        -1.587970         2.512612         2.222528
 C        -0.724433         2.059672         0.968517
 H         0.139661        -1.065747        -0.112798
 H        -2.673245        -0.024363        -0.355000
 H        -2.473913         0.366195         1.415622
 H        -2.635388         2.163554        -1.942141
 H        -1.562746         3.408244        -1.281938
 H        -0.859149         0.617136        -2.037327
 H         0.209403         1.936380        -1.356455
 H        -1.105884         3.350536         2.713220
 H        -1.827270         1.785226         3.008658
 H         0.074399         2.842290         0.835913
