19
Iteration:  4983charge 0 multiplicity 1
 O         0.195236        -0.491279         0.354219
 C        -0.567864         0.763822         0.084221
 C        -2.070506         0.515671         0.302164
 C        -2.110869         2.139092         0.290622
 C        -1.773736         2.641988        -1.114453
 C        -0.482725         1.619033        -1.287215
 O        -2.883553         2.707308         1.287290
 C        -1.868954         2.290354         2.288654
 C        -0.795958         2.000171         1.166740
 H         1.081111        -0.158176         0.607991
 H        -2.591882         0.024062        -0.532145
 H        -2.214810        -0.023915         1.148326
 H        -2.552594         2.351055        -1.809425
 H        -1.610691         3.709707        -1.265199
 H        -0.351097         0.984184        -2.113175
 H         0.435648         2.263752        -1.040260
 H        -1.598614         3.169477         2.877782
 H        -2.227802         1.527664         3.037617
 H         0.100166         2.688634         1.187300
