19
Iteration:  4568
 O         0.282609        -0.291220         0.335775
 C        -0.643590         0.796865         0.143588
 C        -2.146829         0.483404         0.292303
 C        -2.093608         2.067261         0.323095
 C        -1.713639         2.528499        -1.101061
 C        -0.549773         1.546483        -1.278872
 O        -2.914919         2.740265         1.369930
 C        -1.706774         2.347112         2.228090
 C        -0.765232         1.988276         1.067048
 H        -0.228668        -1.113208         0.475950
 H        -2.713116        -0.018211        -0.505007
 H        -2.551596         0.169846         1.324636
 H        -2.601121         2.370156        -1.699208
 H        -1.319729         3.546406        -1.005763
 H        -0.667049         0.978729        -2.172055
 H         0.503281         2.066784        -1.187988
 H        -1.380031         3.153129         2.900216
 H        -2.025396         1.475879         2.850005
 H        -0.045844         2.737178         0.772767
