19
Iteration:   466
 O         0.356720        -0.232243         0.163838
 C        -0.622221         0.751613         0.255145
 C        -2.063680         0.459593         0.655232
 C        -2.156853         2.114384         0.313930
 C        -1.880463         2.305471        -1.176868
 C        -0.705576         1.241629        -1.199457
 O        -2.767509         2.939966         1.317677
 C        -1.695558         2.529694         2.167973
 C        -0.776676         2.086851         0.910458
 H         0.222554        -0.766441         0.953891
 H        -2.628021        -0.348213         0.054346
 H        -2.326725         0.323662         1.731032
 H        -2.734418         2.011131        -1.786893
 H        -1.633431         3.338309        -1.497155
 H        -0.973030         0.412389        -1.878611
 H         0.284277         1.495558        -1.474819
 H        -1.275516         3.332098         2.716401
 H        -1.988667         1.690785         2.824927
 H        -0.137242         2.972737         0.663560
