19
Iteration:  3817
 O         0.141830        -0.344203         0.336503
 C        -0.688042         0.747074         0.110375
 C        -2.163626         0.463119         0.227351
 C        -2.115133         2.070623         0.305492
 C        -1.731732         2.498306        -1.202882
 C        -0.491817         1.592309        -1.257227
 O        -2.824091         2.710221         1.455112
 C        -1.694986         2.377144         2.298802
 C        -0.752898         1.990707         1.076013
 H         0.791227         0.027370         0.956020
 H        -2.730392        -0.081438        -0.587934
 H        -2.423188        -0.127123         1.123618
 H        -2.671594         2.455885        -1.741499
 H        -1.387981         3.631045        -1.337053
 H        -0.392716         0.902843        -2.080407
 H         0.313087         2.302514        -1.329416
 H        -1.399289         3.296984         2.712076
 H        -1.990928         1.625101         3.083527
 H        -0.120727         2.873276         0.976397
