19
Iteration:  2154
 O         0.347974        -0.281814         0.201282
 C        -0.619963         0.656801         0.192580
 C        -2.226495         0.516095         0.429713
 C        -2.119817         2.142456         0.322046
 C        -1.859964         2.418550        -1.122973
 C        -0.643150         1.363476        -1.154574
 O        -2.830968         2.806208         1.352915
 C        -1.645328         2.502656         2.206759
 C        -0.751446         2.016488         0.972765
 H         0.618558        -0.479569         1.100381
 H        -2.777817         0.115563        -0.353925
 H        -2.643076         0.212092         1.390985
 H        -2.666273         2.203229        -1.864458
 H        -1.481489         3.383699        -1.326017
 H        -0.707097         0.625218        -1.980737
 H         0.343422         1.820015        -1.203007
 H        -1.379394         3.537357         2.473570
 H        -1.898324         1.829545         3.095185
 H         0.131977         2.608144         0.775487
