19
Iteration:  3851charge 0 multiplicity 1
 O         0.218584        -0.426618         0.254273
 C        -0.594958         0.753348         0.202947
 C        -2.172554         0.604141         0.260818
 C        -2.072623         2.134028         0.311735
 C        -1.772019         2.555760        -1.059262
 C        -0.604260         1.447691        -1.183698
 O        -2.859823         2.671577         1.313819
 C        -1.739868         2.306881         2.252077
 C        -0.756239         2.124300         1.098399
 H         1.077341        -0.035962         0.511935
 H        -2.590348         0.209513        -0.733074
 H        -2.429019         0.110827         1.197532
 H        -2.663054         2.443491        -1.644147
 H        -1.164356         3.572690        -1.229434
 H        -0.685233         0.617461        -1.793277
 H         0.286467         2.019380        -1.440183
 H        -1.453047         3.206260         2.775384
 H        -2.097726         1.610927         3.043967
 H        -0.059454         2.846747         0.760867
