19
Iteration:   113charge 0 multiplicity 1
 O         0.516118        -0.040126         0.476494
 C        -0.717149         0.709396         0.206322
 C        -2.310977         0.580820         0.370847
 C        -2.167462         2.152395         0.311816
 C        -1.888446         2.278179        -1.261572
 C        -0.687690         1.267596        -1.311052
 O        -2.732213         2.862378         1.434170
 C        -1.626947         2.334597         2.224465
 C        -0.761430         2.028606         0.959847
 H         0.467587        -0.979780         0.247344
 H        -2.770608         0.114831        -0.542555
 H        -2.654269         0.240501         1.386241
 H        -2.771908         1.878071        -1.760708
 H        -1.719570         3.296957        -1.633346
 H        -0.928463         0.519564        -2.028587
 H         0.251231         1.821443        -1.668008
 H        -1.247018         3.166721         2.855310
 H        -1.954817         1.465171         2.864551
 H         0.134341         2.760760         0.847585
