19
Iteration:   601
 O         0.392265        -0.230518         0.303639
 C        -0.653169         0.710544         0.259300
 C        -2.200751         0.502501         0.538978
 C        -2.127816         2.069815         0.327270
 C        -1.873096         2.313178        -1.123399
 C        -0.740224         1.237544        -1.190691
 O        -2.857294         2.922112         1.251296
 C        -1.636241         2.524880         2.150212
 C        -0.667494         2.048457         0.977786
 H         1.039764        -0.162065        -0.439226
 H        -2.883468        -0.058633        -0.059060
 H        -2.314395         0.186481         1.549914
 H        -2.709913         2.072434        -1.778542
 H        -1.664535         3.376749        -1.315897
 H        -0.952421         0.448893        -1.931255
 H         0.249139         1.722909        -1.402933
 H        -1.271341         3.462988         2.599838
 H        -1.892036         1.776273         2.881634
 H         0.043359         2.872893         0.881384
