19
Iteration:  4832
 O         0.247456        -0.404545         0.235587
 C        -0.673949         0.762139         0.207839
 C        -2.188492         0.557299         0.231034
 C        -2.097459         2.031604         0.271727
 C        -1.782088         2.514031        -1.134601
 C        -0.473197         1.693069        -1.116426
 O        -2.861816         2.735280         1.268986
 C        -1.771934         2.330801         2.317981
 C        -0.733135         1.963449         1.132586
 H         0.629184        -0.275085         1.147026
 H        -2.722623         0.069655        -0.742692
 H        -2.601200         0.064924         1.101440
 H        -2.611254         2.131006        -1.764526
 H        -1.656846         3.652303        -1.274883
 H        -0.305588         1.016839        -1.976440
 H         0.533617         2.262463        -1.027548
 H        -1.413280         3.242106         2.769806
 H        -2.112935         1.418527         2.904170
 H         0.147960         2.535952         0.998250
