19
Iteration:  2532
 O         0.327472        -0.288818         0.414050
 C        -0.724884         0.705875         0.217036
 C        -2.143156         0.418358         0.332130
 C        -2.186638         2.012194         0.327427
 C        -1.951555         2.383895        -1.109778
 C        -0.653463         1.504178        -1.334242
 O        -2.748418         2.832946         1.393999
 C        -1.545188         2.592650         2.219727
 C        -0.722791         2.028102         0.965604
 H         0.025737        -1.118671         0.011934
 H        -2.584925        -0.198495        -0.504496
 H        -2.458759         0.085395         1.402258
 H        -2.809812         2.027491        -1.724452
 H        -1.694470         3.459428        -1.285418
 H        -0.631698         0.846621        -2.257614
 H         0.260442         2.030513        -1.209453
 H        -1.255437         3.558607         2.613080
 H        -1.560146         1.775373         3.043032
 H        -0.002382         2.733426         0.710872
