19
Iteration:  2786
 O         0.151560        -0.384411         0.426304
 C        -0.572854         0.755292         0.219642
 C        -2.143423         0.538151         0.329801
 C        -2.117993         2.035371         0.340496
 C        -1.923805         2.389584        -1.172552
 C        -0.665026         1.481398        -1.310387
 O        -2.796690         2.773758         1.362186
 C        -1.541480         2.459353         2.246160
 C        -0.714030         2.132369         0.986790
 H         1.096205        -0.161059         0.500390
 H        -2.765697         0.018082        -0.494157
 H        -2.373879         0.168053         1.275580
 H        -2.842033         2.077780        -1.755426
 H        -1.730543         3.437157        -1.501852
 H        -0.634877         0.732072        -2.053957
 H         0.246207         2.122469        -1.548966
 H        -1.290857         3.194610         3.069330
 H        -1.806891         1.536886         2.786691
 H        -0.018402         2.787632         0.569864
