19
Iteration:  3376charge 0 multiplicity 1
 O         0.325580        -0.333513         0.366167
 C        -0.643922         0.733274         0.100646
 C        -2.116407         0.635117         0.273367
 C        -2.041907         2.213584         0.385356
 C        -1.716970         2.544474        -1.178742
 C        -0.650672         1.362238        -1.340811
 O        -2.892846         2.772157         1.387945
 C        -1.844806         2.181143         2.316782
 C        -0.748495         2.060397         1.113084
 H         1.093524        -0.097903        -0.167295
 H        -2.760471         0.306405        -0.598660
 H        -2.560925         0.233476         1.215513
 H        -2.644386         2.526566        -1.748211
 H        -1.262824         3.511894        -1.076164
 H        -0.889445         0.559659        -2.129318
 H         0.318022         1.766073        -1.621613
 H        -1.453321         2.983982         3.003852
 H        -2.312754         1.325527         2.872843
 H         0.123568         2.745840         1.287926
