19
Iteration:   476
 O         0.365174        -0.272234         0.224758
 C        -0.673384         0.718618         0.180606
 C        -2.068171         0.457285         0.561137
 C        -2.184636         2.001050         0.340290
 C        -1.869656         2.281976        -1.138268
 C        -0.729176         1.227186        -1.271803
 O        -2.778949         2.967753         1.320232
 C        -1.635525         2.585672         2.186176
 C        -0.773170         2.206629         0.986529
 H         0.637902        -0.600357         1.091510
 H        -2.812107        -0.011358        -0.190543
 H        -2.106585         0.115200         1.632608
 H        -2.585258         2.024496        -1.972665
 H        -1.543037         3.316604        -1.118033
 H        -1.079906         0.359055        -1.864955
 H         0.206221         1.583328        -1.627435
 H        -1.482024         3.296981         2.963988
 H        -1.914639         1.699246         2.774506
 H        -0.073833         3.001473         0.584252
