19
Iteration:  4140
 O         0.355543        -0.361103         0.245761
 C        -0.604212         0.708526         0.120149
 C        -2.177733         0.615776         0.307863
 C        -2.054000         2.136675         0.320886
 C        -1.827959         2.567867        -1.127613
 C        -0.548469         1.483818        -1.232832
 O        -2.807058         2.850238         1.329270
 C        -1.904231         2.220735         2.274582
 C        -0.762921         1.961011         1.118158
 H         0.402394        -0.457689         1.219635
 H        -2.691967        -0.092684        -0.353815
 H        -2.238956         0.106554         1.280816
 H        -2.766069         2.223708        -1.763208
 H        -1.592553         3.571595        -1.447824
 H        -0.566202         0.886573        -2.136527
 H         0.312901         2.037189        -1.353016
 H        -1.443328         3.026478         2.978201
 H        -2.355886         1.575629         2.948977
 H         0.139697         2.609538         1.179501
