19
Iteration:  4511
 O         0.338281        -0.228650         0.202811
 C        -0.671567         0.772017         0.136205
 C        -2.248923         0.591268         0.196310
 C        -2.068163         2.139085         0.350787
 C        -1.736965         2.412678        -1.187648
 C        -0.527697         1.399022        -1.170112
 O        -2.825253         2.801853         1.400756
 C        -1.805703         2.243071         2.331411
 C        -0.766602         2.000670         1.110567
 H         0.484601        -0.233888         1.172207
 H        -2.878397         0.299406        -0.633630
 H        -2.656432         0.300269         1.203237
 H        -2.669788         2.333579        -1.814718
 H        -1.479945         3.429396        -1.301781
 H        -0.682720         0.660343        -2.032311
 H         0.537552         1.690289        -1.349396
 H        -1.434166         3.075837         3.043949
 H        -2.166113         1.455318         2.963454
 H         0.065912         2.769596         1.011716
