19
Iteration:  3736
 O         0.273737        -0.327944         0.307647
 C        -0.624729         0.716917         0.168573
 C        -2.191657         0.533467         0.335276
 C        -2.093949         2.116859         0.302871
 C        -1.685618         2.559635        -1.093268
 C        -0.627851         1.455860        -1.227710
 O        -2.896168         2.754647         1.328290
 C        -1.766171         2.277711         2.233159
 C        -0.726557         2.047612         1.099183
 H         1.036218        -0.225277        -0.298012
 H        -2.756819         0.188579        -0.495227
 H        -2.426143         0.106104         1.290800
 H        -2.603091         2.545924        -1.814438
 H        -1.245271         3.540341        -1.066209
 H        -0.707080         0.752410        -2.128098
 H         0.243845         2.089082        -1.297930
 H        -1.521085         3.059476         3.013955
 H        -2.132787         1.420759         2.771085
 H         0.082999         2.837777         1.170449
