19
Iteration:  1561charge 0 multiplicity 1
 O         0.256816        -0.225883         0.442099
 C        -0.674758         0.729631         0.140687
 C        -2.167381         0.459994         0.319915
 C        -2.109225         2.045595         0.286329
 C        -1.788565         2.412247        -1.132304
 C        -0.614143         1.383227        -1.206622
 O        -2.878915         2.745131         1.402334
 C        -1.621123         2.545105         2.178663
 C        -0.759409         2.034836         1.017860
 H         0.682269        -0.557247        -0.386129
 H        -2.666094        -0.020541        -0.563571
 H        -2.534242         0.083913         1.267525
 H        -2.665137         2.425947        -1.797676
 H        -1.314946         3.382872        -1.222259
 H        -0.716363         0.663257        -2.053801
 H         0.228685         2.017745        -1.381251
 H        -1.187842         3.395496         2.638537
 H        -1.692588         1.876781         3.056437
 H         0.047139         2.738896         0.823769
