19
Iteration:  2034
 O         0.298724        -0.346602         0.331445
 C        -0.609585         0.729398         0.219095
 C        -2.129146         0.506580         0.258557
 C        -2.201782         2.023725         0.306440
 C        -1.857723         2.445262        -1.103563
 C        -0.687758         1.368005        -1.243170
 O        -2.758153         2.844540         1.387995
 C        -1.619490         2.533838         2.241953
 C        -0.776759         2.043533         0.999143
 H         0.500842        -0.620989         1.259097
 H        -2.603356        -0.065891        -0.462222
 H        -2.560961         0.272994         1.243898
 H        -2.567341         2.274982        -1.944878
 H        -1.461949         3.409733        -1.244330
 H        -0.818384         0.540225        -1.960552
 H         0.125166         1.971086        -1.574127
 H        -1.228431         3.488228         2.591206
 H        -1.761850         1.743728         2.986094
 H        -0.265701         2.858155         0.590563
