19
Iteration:  4642
 O         0.332754        -0.261834         0.488897
 C        -0.634991         0.696178         0.182453
 C        -2.189747         0.448620         0.283051
 C        -2.111143         2.065548         0.266034
 C        -1.711059         2.643493        -1.120135
 C        -0.625267         1.534310        -1.341753
 O        -2.823265         2.852641         1.362361
 C        -1.754983         2.198348         2.258415
 C        -0.793575         1.988756         1.057847
 H         0.685147        -0.829690        -0.199187
 H        -2.676737        -0.239035        -0.335895
 H        -2.512674         0.068171         1.290328
 H        -2.454905         2.488039        -1.918507
 H        -1.413930         3.669453        -1.024781
 H        -1.007573         0.833984        -2.073717
 H         0.275580         1.975995        -1.761306
 H        -1.433564         3.054596         2.907879
 H        -2.197264         1.362217         2.736844
 H        -0.145212         2.909155         0.873419
