19
Iteration:  3372charge 0 multiplicity 1
 O         0.321445        -0.354048         0.362067
 C        -0.632239         0.757926         0.171989
 C        -2.156243         0.679086         0.270375
 C        -2.065056         2.202235         0.399252
 C        -1.703312         2.535898        -1.223484
 C        -0.633957         1.350867        -1.392860
 O        -2.904767         2.776516         1.391197
 C        -1.828901         2.159537         2.341127
 C        -0.749430         2.056574         1.094554
 H         1.102603        -0.094540        -0.177238
 H        -2.648576         0.475911        -0.628764
 H        -2.354451         0.233732         1.320936
 H        -2.576162         2.448549        -1.883053
 H        -1.251437         3.586853        -0.941170
 H        -0.907555         0.509575        -1.967840
 H         0.311380         1.834190        -1.786034
 H        -1.574006         2.840491         3.112649
 H        -2.116967         1.247113         2.868830
 H        -0.007967         2.894664         1.238075
