19
Iteration:  2132
 O         0.361472        -0.223509         0.177688
 C        -0.658488         0.754759         0.222509
 C        -2.307078         0.492088         0.499000
 C        -2.131700         2.012450         0.264633
 C        -1.835357         2.389335        -1.169416
 C        -0.673953         1.403374        -1.252633
 O        -2.724971         2.894069         1.251186
 C        -1.724848         2.458252         2.275168
 C        -0.641877         1.967961         1.125895
 H         0.631207        -0.654050         1.024011
 H        -2.756977        -0.181585        -0.113949
 H        -2.450900         0.291688         1.551973
 H        -2.755914         2.127456        -1.745310
 H        -1.606102         3.403059        -1.321307
 H        -0.819211         0.613096        -2.017688
 H         0.313937         1.837422        -1.313014
 H        -1.428026         3.337802         2.923929
 H        -2.144340         1.657460         2.992033
 H        -0.063316         2.750853         0.699977
