19
Iteration:  4850
 O         0.192255        -0.289188         0.317597
 C        -0.700993         0.732100         0.126371
 C        -2.209027         0.560393         0.172258
 C        -2.144965         2.190302         0.275647
 C        -1.721349         2.474621        -1.161573
 C        -0.409889         1.569264        -1.152685
 O        -2.817124         2.673906         1.444119
 C        -1.729608         2.257901         2.225428
 C        -0.845108         1.986970         1.094361
 H         0.952085        -0.345158         0.916116
 H        -2.698140         0.001572        -0.547803
 H        -2.462482         0.062784         1.150924
 H        -2.362970         2.030873        -1.924780
 H        -1.369417         3.475093        -1.361089
 H        -0.164523         1.113193        -2.069331
 H         0.479552         2.226416        -1.021277
 H        -1.538672         3.218722         2.838562
 H        -2.135049         1.522144         2.908226
 H        -0.161728         2.919450         1.099623
