19
Iteration:  3527
 O         0.325723        -0.320610         0.354041
 C        -0.662175         0.737562         0.219549
 C        -2.269882         0.519754         0.208360
 C        -2.129105         2.140600         0.297758
 C        -1.779968         2.578754        -1.046649
 C        -0.561269         1.492866        -1.221737
 O        -2.811077         2.760180         1.327652
 C        -1.713290         2.276509         2.283845
 C        -0.788192         1.963696         1.074162
 H         0.951776         0.119106        -0.258522
 H        -2.566363         0.188475        -0.698325
 H        -2.730699         0.024422         0.997797
 H        -2.575872         2.386616        -1.813873
 H        -1.289486         3.525705        -1.301650
 H        -0.687982         0.703450        -1.904008
 H         0.445075         1.896916        -1.305359
 H        -1.334588         3.003410         2.953135
 H        -2.160967         1.485877         2.837744
 H        -0.023483         2.756958         0.946459
