19
Iteration:    41
 O         0.297509        -0.343195         0.293152
 C        -0.662054         0.722313         0.154759
 C        -2.175934         0.523306         0.343493
 C        -2.139381         2.049290         0.377024
 C        -1.857891         2.360966        -1.048563
 C        -0.538031         1.440412        -1.224930
 O        -2.874976         2.573995         1.412805
 C        -1.624560         2.718154         2.127181
 C        -0.775667         2.099485         0.954810
 H         0.616006        -0.337453         1.226033
 H        -2.790289         0.032952        -0.443793
 H        -2.406636         0.007200         1.267525
 H        -2.580161         2.001360        -1.867986
 H        -1.587721         3.403725        -1.172788
 H        -0.632360         0.717339        -2.149887
 H         0.393770         1.937024        -1.272013
 H        -1.406474         3.845554         2.326418
 H        -1.536215         2.538773         3.212625
 H        -0.133786         2.825276         0.509224
