19
Iteration:  1863
 O         0.363854        -0.332526         0.320449
 C        -0.679308         0.646298         0.164240
 C        -2.186816         0.529836         0.457304
 C        -2.021057         2.074911         0.235540
 C        -1.948546         2.405907        -1.165224
 C        -0.692948         1.412515        -1.253213
 O        -2.695766         2.965673         1.229414
 C        -1.721472         2.431508         2.333152
 C        -0.779713         1.962001         1.059752
 H         1.016728         0.135367         0.852434
 H        -2.767790        -0.095590        -0.185201
 H        -2.337956         0.280739         1.543515
 H        -2.782607         2.052963        -1.827271
 H        -1.720050         3.392210        -1.325797
 H        -0.637837         0.809174        -2.168475
 H         0.140025         2.096459        -1.347836
 H        -1.462443         2.935170         3.235318
 H        -2.307761         1.656770         2.755211
 H        -0.047383         2.695413         0.820309
