19
Iteration:  4628
 O         0.259630        -0.231810         0.577085
 C        -0.657608         0.802238         0.104381
 C        -2.115804         0.552481         0.268426
 C        -2.161249         2.141456         0.280683
 C        -1.813546         2.578202        -1.137235
 C        -0.570794         1.501688        -1.281459
 O        -2.780931         2.722857         1.368019
 C        -1.718365         2.200829         2.220671
 C        -0.786468         1.942006         1.005964
 H         0.266633        -0.836099        -0.223886
 H        -2.732311         0.133589        -0.569253
 H        -2.243351         0.148324         1.254550
 H        -2.619076         2.625998        -1.959624
 H        -1.384398         3.614109        -1.220570
 H        -0.760469         0.763349        -2.145543
 H         0.424643         1.833711        -1.340852
 H        -1.325371         2.911000         3.040105
 H        -2.004956         1.230755         2.773650
 H         0.022805         2.739955         0.880194
