19
Iteration:  3709
 O         0.201075        -0.384844         0.290242
 C        -0.599810         0.742252         0.180021
 C        -2.216673         0.453175         0.208960
 C        -2.191680         2.021887         0.264596
 C        -1.746847         2.561513        -1.156504
 C        -0.451441         1.598125        -1.116220
 O        -2.825474         2.741132         1.433269
 C        -1.685891         2.430024         2.251235
 C        -0.842312         1.992511         1.097419
 H         1.062444        -0.320007        -0.169160
 H        -2.798011        -0.042405        -0.675742
 H        -2.530899        -0.081960         1.172591
 H        -2.419612         2.174360        -1.819648
 H        -1.640354         3.683521        -1.189384
 H        -0.522101         0.928829        -1.929069
 H         0.492475         2.255697        -1.196477
 H        -1.234956         3.331995         2.683286
 H        -2.055693         1.627986         2.980535
 H        -0.135306         2.785477         0.954836
