19
Iteration:  1284charge 0 multiplicity 1
 O         0.176677        -0.346679         0.492865
 C        -0.632403         0.773609         0.181426
 C        -2.080249         0.380616         0.253562
 C        -2.118518         2.092089         0.295496
 C        -1.885268         2.483006        -1.099774
 C        -0.586754         1.469892        -1.291423
 O        -2.827310         2.744520         1.307255
 C        -1.609973         2.468629         2.240677
 C        -0.778173         2.065851         1.030939
 H         1.107392        -0.311358         0.253911
 H        -2.690825         0.022227        -0.571378
 H        -2.434207        -0.082780         1.165644
 H        -2.696081         2.194353        -1.760445
 H        -1.643756         3.518881        -1.367851
 H        -0.553449         0.845937        -2.153181
 H         0.267149         2.214929        -1.238606
 H        -1.323554         3.397548         2.664236
 H        -1.808008         1.743714         3.146895
 H        -0.106416         2.924458         0.869802
