19
Iteration:  3268charge 0 multiplicity 1
 O         0.259734        -0.305449         0.153457
 C        -0.678174         0.750661         0.212829
 C        -2.155892         0.647348         0.375796
 C        -2.116575         2.136143         0.316584
 C        -1.699789         2.521522        -1.123309
 C        -0.519124         1.428532        -1.176464
 O        -2.811301         2.710567         1.360745
 C        -1.780641         2.259916         2.269205
 C        -0.783460         2.076057         1.047238
 H         0.646310        -0.598117         1.006420
 H        -2.689234         0.188725        -0.441208
 H        -2.545538         0.136948         1.265135
 H        -2.556613         2.355958        -1.814742
 H        -1.452775         3.481068        -1.386250
 H        -1.008583         0.718337        -1.888721
 H         0.475270         1.728407        -1.509342
 H        -1.560303         3.095977         2.996138
 H        -2.106233         1.251263         2.677306
 H        -0.152322         2.963246         0.937137
