19
Iteration:   998
 O         0.418612        -0.229403         0.381401
 C        -0.652738         0.758003         0.133746
 C        -2.213976         0.402629         0.399349
 C        -2.138871         2.092241         0.248310
 C        -1.817485         2.332455        -1.160979
 C        -0.611398         1.432206        -1.219415
 O        -2.764562         2.827400         1.317449
 C        -1.718635         2.429729         2.291617
 C        -0.853791         2.119846         1.012568
 H         0.051731        -1.114998         0.138799
 H        -2.782848        -0.141324        -0.335537
 H        -2.354062         0.040991         1.398455
 H        -2.600708         2.237071        -1.940127
 H        -1.563451         3.428552        -1.109695
 H        -0.674958         0.788001        -2.057268
 H         0.296990         2.137018        -1.293344
 H        -1.375021         3.343038         2.829819
 H        -1.947414         1.707799         3.075599
 H        -0.008164         2.849626         0.786208
