19
Iteration:    95
 O         0.457619        -0.050969         0.354760
 C        -0.642531         0.746760         0.153810
 C        -2.242409         0.582950         0.559995
 C        -2.093541         2.113967         0.280253
 C        -1.908962         2.315259        -1.156911
 C        -0.703946         1.271983        -1.223258
 O        -2.838789         2.907794         1.256556
 C        -1.604444         2.207001         2.226523
 C        -0.732359         2.062873         0.966611
 H         0.099460        -0.906697         0.631842
 H        -2.999249         0.122995        -0.113741
 H        -2.428089         0.397895         1.571032
 H        -2.729387         2.053865        -1.922060
 H        -1.521070         3.290093        -1.414414
 H        -0.671695         0.401533        -2.043915
 H         0.220899         1.827644        -1.331314
 H        -1.215627         2.968126         2.972552
 H        -2.079354         1.284869         2.579906
 H        -0.012548         2.900425         0.739119
