19
Iteration:   583charge 0 multiplicity 1
 O         0.349268        -0.297923         0.416856
 C        -0.638252         0.697317         0.224427
 C        -2.115836         0.539364         0.516266
 C        -2.019692         2.097115         0.269195
 C        -2.021943         2.314714        -1.142900
 C        -0.817255         1.344558        -1.305896
 O        -2.679438         2.809177         1.217128
 C        -1.704400         2.551643         2.206020
 C        -0.695030         2.085391         1.085524
 H         1.106094         0.121697        -0.069475
 H        -2.664543        -0.063518        -0.269146
 H        -2.486078         0.281167         1.530596
 H        -3.035957         2.072061        -1.700973
 H        -1.728410         3.268613        -1.492367
 H        -1.075020         0.468521        -1.993008
 H         0.161089         1.685814        -1.757070
 H        -1.434357         3.516866         2.907654
 H        -2.061072         1.732276         2.893113
 H         0.075595         2.818569         0.716332
