19
Iteration:  2124charge 0 multiplicity 1
 O         0.341626        -0.220201         0.184378
 C        -0.573318         0.752868         0.178946
 C        -2.222917         0.477656         0.486699
 C        -2.157709         2.057911         0.337881
 C        -1.888998         2.380124        -1.159465
 C        -0.660382         1.357163        -1.231691
 O        -2.698376         2.944833         1.281921
 C        -1.759187         2.413429         2.277744
 C        -0.693388         1.972282         1.073162
 H         0.334242        -0.557929         1.112929
 H        -2.842656        -0.186548        -0.200838
 H        -2.546119         0.125598         1.513704
 H        -2.649697         2.136105        -1.956419
 H        -1.591701         3.419172        -1.386136
 H        -0.761098         0.562849        -1.966437
 H         0.334101         1.780404        -1.552752
 H        -1.503102         3.427770         2.764582
 H        -2.219942         1.628100         2.884358
 H         0.051830         2.785177         0.895988
