19
Iteration:  3402
 O         0.250593        -0.320619         0.309146
 C        -0.688998         0.765165         0.225754
 C        -2.168983         0.481307         0.237881
 C        -2.140391         2.013202         0.326251
 C        -1.741420         2.562443        -1.134697
 C        -0.573698         1.578889        -1.177616
 O        -2.757032         2.789600         1.301446
 C        -1.723893         2.308759         2.286027
 C        -0.799311         1.958545         1.116708
 H         1.011761         0.077744        -0.136347
 H        -2.752589        -0.134669        -0.533113
 H        -2.635441        -0.017262         1.112162
 H        -2.575986         2.466749        -1.872098
 H        -1.598704         3.646743        -0.965340
 H        -0.731626         0.758525        -1.924676
 H         0.435171         1.957384        -1.466045
 H        -1.360645         3.201724         2.865717
 H        -2.196575         1.466443         2.837503
 H        -0.033890         2.694384         0.889459
