19
Iteration:  3618charge 0 multiplicity 1
 O         0.335131        -0.235170         0.397455
 C        -0.671263         0.756816         0.152507
 C        -2.285286         0.541832         0.138418
 C        -2.148372         2.044734         0.311081
 C        -1.745347         2.555691        -1.128292
 C        -0.593303         1.471337        -1.317940
 O        -2.782207         2.800937         1.399741
 C        -1.736716         2.278947         2.347775
 C        -0.784866         1.872526         1.104035
 H         1.142813         0.215190         0.697029
 H        -2.525027         0.147595        -0.875018
 H        -2.824356         0.141827         1.032577
 H        -2.545282         2.407413        -1.948105
 H        -1.260501         3.534154        -1.163934
 H        -0.843352         0.724339        -2.197613
 H         0.289786         2.028483        -1.514845
 H        -1.218697         3.063203         2.995086
 H        -2.186381         1.507549         3.019623
 H         0.120920         2.556524         1.050187
