19
Iteration:  3087
 O         0.329376        -0.255149         0.351088
 C        -0.682955         0.797315         0.237618
 C        -2.157834         0.548559         0.208963
 C        -2.096548         2.199534         0.278007
 C        -1.852855         2.462955        -1.256826
 C        -0.683576         1.396401        -1.237852
 O        -2.808595         2.747525         1.485033
 C        -1.619498         2.200802         2.296085
 C        -0.748429         2.128014         1.015124
 H         0.059563        -0.959421         0.963154
 H        -2.456175         0.009300        -0.780290
 H        -2.716285         0.252185         1.020080
 H        -2.574867         2.400658        -1.989654
 H        -1.354177         3.454468        -1.439844
 H        -0.804680         0.519616        -1.906293
 H         0.278820         1.819711        -1.479563
 H        -1.395338         3.063465         2.898058
 H        -1.750785         1.382351         3.041364
 H        -0.097086         3.026315         0.942105
