19
Iteration:  2381
 O         0.269773        -0.384403         0.190029
 C        -0.635677         0.810058         0.247910
 C        -2.082113         0.491177         0.376341
 C        -2.053466         2.114287         0.267939
 C        -1.855047         2.391300        -1.172960
 C        -0.704737         1.332250        -1.221734
 O        -2.829308         2.859356         1.392132
 C        -1.631448         2.459088         2.265761
 C        -0.782208         2.113798         1.088475
 H         1.161609        -0.242866         0.529236
 H        -2.685281        -0.054219        -0.375660
 H        -2.454427         0.168232         1.398268
 H        -2.750352         2.226188        -1.817222
 H        -1.601819         3.450496        -1.281106
 H        -1.039190         0.401952        -1.766159
 H         0.195165         1.642344        -1.727783
 H        -1.465984         3.336598         2.818262
 H        -1.924853         1.693297         3.031358
 H        -0.126835         2.880864         0.789822
