19
Iteration:   559charge 0 multiplicity 1
 O         0.245878        -0.349720         0.494825
 C        -0.573549         0.815988         0.108595
 C        -2.057534         0.474920         0.400467
 C        -2.203531         2.112348         0.312556
 C        -1.965168         2.271215        -1.208759
 C        -0.714809         1.299869        -1.341658
 O        -2.824254         2.932146         1.440330
 C        -1.563336         2.460343         2.194089
 C        -0.708391         2.164945         0.971211
 H         1.118775        -0.003079         0.798521
 H        -2.621325        -0.166749        -0.267698
 H        -2.182876         0.148926         1.406184
 H        -2.835028         1.878474        -1.839809
 H        -1.749930         3.246080        -1.610134
 H        -0.852092         0.349883        -1.952973
 H         0.196273         1.762261        -1.866794
 H        -1.085516         3.381210         2.829578
 H        -1.877264         1.670452         2.926536
 H        -0.007931         2.868005         0.520314
