19
Iteration:   561charge 0 multiplicity 1
 O         0.250017        -0.349208         0.489470
 C        -0.555442         0.815506         0.134308
 C        -2.050784         0.470245         0.400453
 C        -2.194909         2.114450         0.320391
 C        -1.961901         2.281256        -1.216844
 C        -0.740195         1.293967        -1.358917
 O        -2.821858         2.937251         1.426551
 C        -1.584341         2.456680         2.210296
 C        -0.700346         2.161424         0.974925
 H         1.120515        -0.019933         0.742833
 H        -2.638819        -0.183328        -0.313831
 H        -2.200040         0.157962         1.439826
 H        -2.871921         1.862391        -1.849345
 H        -1.780158         3.257961        -1.585713
 H        -0.814085         0.346202        -1.982047
 H         0.149167         1.771626        -1.861832
 H        -1.079115         3.369118         2.802446
 H        -1.913111         1.729177         2.986208
 H         0.045951         2.827799         0.533961
