19
Iteration:  1628charge 0 multiplicity 1
 O         0.329619        -0.244676         0.474713
 C        -0.553228         0.772340         0.160164
 C        -2.214948         0.564571         0.382782
 C        -2.145132         2.057398         0.293394
 C        -1.891228         2.383118        -1.198580
 C        -0.636624         1.400594        -1.253675
 O        -2.759954         2.902285         1.344032
 C        -1.671290         2.275792         2.223739
 C        -0.773780         2.109456         0.973365
 H         0.217740        -1.126245         0.118907
 H        -2.715269         0.085442        -0.484358
 H        -2.391489        -0.011971         1.338017
 H        -2.714630         2.201676        -1.930593
 H        -1.596602         3.520171        -1.227980
 H        -0.694530         0.462614        -1.856745
 H         0.324297         1.893806        -1.575571
 H        -1.549873         3.064933         3.056501
 H        -1.934230         1.378014         2.799340
 H        -0.001667         2.906870         0.829922
