19
Iteration:  1742charge 0 multiplicity 1
 O         0.376432        -0.260385         0.338688
 C        -0.675493         0.707346         0.165962
 C        -2.234157         0.503141         0.378660
 C        -2.094278         2.192880         0.296289
 C        -1.854088         2.342793        -1.213441
 C        -0.663525         1.344426        -1.179424
 O        -2.760375         2.957179         1.275727
 C        -1.708511         2.392510         2.297869
 C        -0.741426         2.035188         1.106620
 H         0.868637        -0.350621        -0.471713
 H        -2.816359        -0.060793        -0.361098
 H        -2.361356         0.061948         1.328403
 H        -2.686558         1.815444        -1.680319
 H        -1.829244         3.317259        -1.581869
 H        -0.682454         0.502988        -1.854489
 H         0.279707         1.832676        -1.347742
 H        -1.321942         2.948408         3.135989
 H        -2.259150         1.476925         2.667476
 H         0.031892         2.745104         1.242829
