19
Iteration:  3044
 O         0.294295        -0.308287         0.387755
 C        -0.585831         0.745059         0.161197
 C        -2.160489         0.479731         0.422601
 C        -2.171973         2.095505         0.308529
 C        -1.876089         2.480505        -1.098806
 C        -0.610009         1.549463        -1.282502
 O        -2.810874         2.795119         1.336763
 C        -1.635785         2.356217         2.211051
 C        -0.756973         1.970008         0.998537
 H        -0.029624        -1.067969        -0.126755
 H        -2.619458        -0.126688        -0.439191
 H        -2.390949         0.073078         1.339986
 H        -2.720012         2.403237        -1.715808
 H        -1.483973         3.538886        -1.171667
 H        -0.446832         0.995419        -2.226062
 H         0.219470         2.250148        -1.234146
 H        -1.201883         3.222222         2.743188
 H        -2.028180         1.636847         3.006497
 H        -0.047333         2.811780         0.725799
