19
Iteration:  3534
 O         0.314334        -0.370843         0.323589
 C        -0.641703         0.719877         0.234026
 C        -2.230647         0.601116         0.209629
 C        -2.063308         2.106890         0.295737
 C        -1.803827         2.538109        -1.103428
 C        -0.570186         1.472554        -1.183687
 O        -2.842837         2.745094         1.356392
 C        -1.746643         2.293056         2.244284
 C        -0.778771         2.033458         1.124041
 H         1.002923        -0.069352        -0.310304
 H        -2.607501         0.226662        -0.804633
 H        -2.716484         0.065563         1.094458
 H        -2.549043         2.463143        -1.851702
 H        -1.349177         3.581266        -1.153379
 H        -0.698047         0.770150        -2.013630
 H         0.340394         2.145986        -1.394931
 H        -1.389457         3.039127         2.979613
 H        -2.078322         1.419537         2.876161
 H        -0.062741         2.826514         0.995596
