19
Iteration:  2382
 O         0.267034        -0.386943         0.184314
 C        -0.630437         0.808571         0.255477
 C        -2.081408         0.494004         0.376071
 C        -2.059874         2.114114         0.265360
 C        -1.857890         2.388393        -1.172218
 C        -0.705342         1.335031        -1.216499
 O        -2.832641         2.855327         1.389993
 C        -1.633819         2.459650         2.278147
 C        -0.778349         2.115419         1.082111
 H         1.146206        -0.229484         0.548851
 H        -2.651084        -0.047509        -0.364522
 H        -2.487450         0.186079         1.376430
 H        -2.752923         2.218109        -1.805166
 H        -1.571486         3.425811        -1.280426
 H        -1.017772         0.424856        -1.776760
 H         0.195704         1.648881        -1.741691
 H        -1.427580         3.364456         2.791049
 H        -1.936832         1.688304         3.017805
 H        -0.063476         2.889218         0.758908
