19
Iteration:  2682charge 0 multiplicity 1
 O         0.233799        -0.296722         0.440109
 C        -0.629029         0.731191         0.093092
 C        -2.095958         0.604517         0.414035
 C        -2.054455         2.152672         0.335588
 C        -1.987107         2.341353        -1.252392
 C        -0.612426         1.440190        -1.355826
 O        -2.754607         2.714325         1.442921
 C        -1.613664         2.433473         2.256789
 C        -0.711549         2.101158         0.973912
 H        -0.262785        -1.121964         0.445699
 H        -2.787756         0.032790        -0.220846
 H        -2.152250         0.331633         1.486229
 H        -2.976897         2.134575        -1.582704
 H        -1.852987         3.402111        -1.370035
 H        -0.694049         0.588129        -2.108157
 H         0.305353         2.012705        -1.508381
 H        -1.424586         3.336734         2.833535
 H        -1.804883         1.606267         2.943931
 H        -0.138540         2.986854         0.509923
