19
Iteration:  1212
 O         0.421200        -0.180213         0.338891
 C        -0.635285         0.776090         0.231236
 C        -2.210090         0.497437         0.316174
 C        -2.137612         2.082280         0.308807
 C        -1.794111         2.477591        -1.162520
 C        -0.660838         1.321669        -1.246666
 O        -2.769943         2.813043         1.312971
 C        -1.684392         2.391804         2.249870
 C        -0.833375         2.012766         1.051209
 H        -0.007879        -0.768997         0.975747
 H        -2.447569        -0.187400        -0.550679
 H        -2.604249         0.075867         1.276131
 H        -2.702189         2.337006        -1.832269
 H        -1.480277         3.493415        -1.308745
 H        -1.142241         0.466950        -1.862925
 H         0.282855         1.650427        -1.622168
 H        -1.136840         3.170617         2.846121
 H        -2.096719         1.698346         2.890700
 H        -0.188472         2.875680         0.915484
