19
Iteration:  4607
 O         0.263706        -0.215909         0.511032
 C        -0.690295         0.747109         0.193399
 C        -2.278015         0.583716         0.117844
 C        -2.066996         2.158238         0.291245
 C        -1.783487         2.448347        -1.182850
 C        -0.531429         1.545974        -1.257302
 O        -2.853098         2.658190         1.453022
 C        -1.629747         2.213688         2.257884
 C        -0.694752         2.083764         1.049036
 H        -0.176382        -0.968277         0.083841
 H        -2.609814         0.252028        -0.869659
 H        -2.803310         0.252156         0.983293
 H        -2.535669         2.030874        -1.927146
 H        -1.566583         3.483302        -1.510539
 H        -0.577193         0.767409        -2.081650
 H         0.385584         2.031226        -1.333932
 H        -1.373261         3.013455         3.043509
 H        -1.684500         1.303985         2.898539
 H        -0.110728         3.034575         0.808441
