19
Iteration:  1980
 O         0.403277        -0.298904         0.229367
 C        -0.625001         0.759491         0.230997
 C        -2.229261         0.551024         0.415857
 C        -2.167330         2.156254         0.317965
 C        -1.895405         2.332080        -1.183074
 C        -0.629842         1.323216        -1.215366
 O        -2.736697         2.995678         1.324669
 C        -1.673103         2.329856         2.269641
 C        -0.809132         2.081092         1.033490
 H         0.253405        -1.029074         0.857337
 H        -2.678103         0.049752        -0.381547
 H        -2.327881         0.011682         1.346370
 H        -2.651115         1.946601        -1.883915
 H        -1.633618         3.332388        -1.399547
 H        -0.812797         0.439825        -1.833466
 H         0.259490         1.812383        -1.536364
 H        -1.141062         3.100673         2.825711
 H        -2.050965         1.591005         2.958939
 H        -0.109858         2.858911         0.880079
