19
Iteration:  4670
 O         0.370909        -0.195663         0.284326
 C        -0.668025         0.691629         0.206504
 C        -2.227070         0.567831         0.201641
 C        -2.082117         2.078500         0.353374
 C        -1.704678         2.552884        -1.087141
 C        -0.593720         1.356525        -1.153740
 O        -2.872374         2.831947         1.324421
 C        -1.795251         2.316328         2.291167
 C        -0.734986         1.930398         1.152623
 H         0.672000        -0.559538        -0.562032
 H        -2.766442         0.026916        -0.667974
 H        -2.458442        -0.007261         1.082846
 H        -2.426979         2.475601        -1.962380
 H        -1.361989         3.634923        -1.188189
 H        -0.864177         0.528592        -1.914971
 H         0.336210         1.812203        -1.498272
 H        -1.514208         3.265117         2.715528
 H        -2.301240         1.553044         2.968487
 H        -0.199782         2.808470         0.861088
