19
Iteration:  4249charge 0 multiplicity 1
 O         0.352785        -0.315250         0.145708
 C        -0.659750         0.717587         0.181674
 C        -2.199754         0.535406         0.289180
 C        -2.096576         2.146310         0.337584
 C        -1.764201         2.422254        -1.196500
 C        -0.481457         1.451722        -1.138728
 O        -2.865083         2.875264         1.409485
 C        -1.741332         2.260739         2.330196
 C        -0.857022         2.104404         1.103023
 H         0.004046        -0.993564         0.762902
 H        -2.675291         0.134426        -0.647592
 H        -2.604060         0.288175         1.256656
 H        -2.436150         2.119902        -2.101420
 H        -1.330084         3.373839        -1.526219
 H        -0.610438         0.750273        -1.980622
 H         0.400974         1.969305        -1.343810
 H        -1.409611         3.162451         3.015002
 H        -2.109809         1.397640         2.815590
 H        -0.011232         2.826477         1.124862
