19
Iteration:  1738charge 0 multiplicity 1
 O         0.354232        -0.242795         0.334643
 C        -0.688505         0.719580         0.193398
 C        -2.229443         0.503550         0.394340
 C        -2.007981         2.191737         0.327681
 C        -1.873242         2.312104        -1.193493
 C        -0.654131         1.374310        -1.209186
 O        -2.764311         2.925038         1.245208
 C        -1.731427         2.384355         2.319931
 C        -0.735400         2.016007         1.099181
 H         0.784495        -0.282604        -0.560161
 H        -2.974301         0.091605        -0.348265
 H        -2.381473        -0.017287         1.367880
 H        -2.702177         1.771936        -1.632096
 H        -1.791749         3.429152        -1.670700
 H        -0.761814         0.499578        -1.883593
 H         0.426265         1.782836        -1.297406
 H        -1.304439         3.082641         3.172207
 H        -2.346633         1.540411         2.468798
 H         0.077967         2.820325         1.064298
