19
Iteration:   188charge 0 multiplicity 1
 O         0.268329        -0.341365         0.209063
 C        -0.638849         0.782640         0.242415
 C        -2.087693         0.430843         0.488588
 C        -2.132161         2.106899         0.309200
 C        -1.878028         2.246649        -1.255222
 C        -0.678907         1.354526        -1.228107
 O        -2.846742         2.818461         1.394210
 C        -1.650463         2.633696         2.255038
 C        -0.734122         2.123447         1.035868
 H         1.188627        -0.097585         0.433760
 H        -2.516170        -0.125685        -0.336536
 H        -2.427616         0.197084         1.526261
 H        -2.645388         1.787745        -1.840172
 H        -1.779482         3.281620        -1.635378
 H        -0.798795         0.659812        -1.975115
 H         0.323775         1.829280        -1.400822
 H        -1.305318         3.590085         2.596772
 H        -1.849068         1.933800         3.030411
 H         0.078787         2.808982         0.911810
