19
Iteration:  1548
 O         0.225102        -0.256997         0.500099
 C        -0.688109         0.762302         0.177882
 C        -2.140945         0.452456         0.322093
 C        -2.228218         2.059491         0.305762
 C        -1.805337         2.503230        -1.178905
 C        -0.615316         1.388344        -1.297119
 O        -2.742935         2.682576         1.380456
 C        -1.622660         2.493345         2.295455
 C        -0.743060         2.128631         0.955557
 H         0.648888        -0.615296        -0.276130
 H        -2.660768        -0.143023        -0.457160
 H        -2.280201        -0.035054         1.264887
 H        -2.324182         2.297662        -2.195899
 H        -1.547867         3.507021        -1.102708
 H        -0.827297         0.614390        -2.089548
 H         0.412602         1.594049        -1.364662
 H        -1.441969         3.422706         2.597782
 H        -2.035501         1.797993         3.099474
 H        -0.118549         2.942430         0.615804
