19
Iteration:  4485charge 0 multiplicity 1
 O         0.287000        -0.293767         0.433507
 C        -0.705525         0.739207         0.225369
 C        -2.184761         0.473442         0.227135
 C        -2.131793         2.171896         0.298025
 C        -1.826454         2.529041        -1.219226
 C        -0.547737         1.571321        -1.224760
 O        -2.795011         2.784203         1.394880
 C        -1.642520         2.165128         2.211170
 C        -0.764613         2.023266         1.002355
 H         0.169792        -0.572886         1.368929
 H        -2.714785         0.006101        -0.637559
 H        -2.603486         0.142085         1.143044
 H        -2.630337         2.515715        -1.985328
 H        -1.656725         3.656386        -1.269911
 H        -0.679347         1.122835        -2.226230
 H         0.443229         1.951147        -1.305969
 H        -1.343214         2.986708         2.838736
 H        -1.917198         1.238574         2.775627
 H         0.121789         2.671096         0.941400
