19
Iteration:  2043
 O         0.316181        -0.342381         0.393463
 C        -0.665845         0.694146         0.238667
 C        -2.210728         0.513430         0.291152
 C        -2.181451         2.026934         0.287653
 C        -1.843198         2.448246        -1.192412
 C        -0.640474         1.402962        -1.299175
 O        -2.751047         2.766582         1.459271
 C        -1.579455         2.559012         2.203685
 C        -0.803189         2.107488         0.937583
 H         0.322256        -0.663655         1.333694
 H        -2.726236        -0.099482        -0.441123
 H        -2.273490        -0.053283         1.183439
 H        -2.665106         2.483439        -1.904916
 H        -1.512458         3.508752        -1.084266
 H        -0.911206         0.698557        -2.119785
 H         0.366295         1.801357        -1.511570
 H        -1.269038         3.445403         2.759226
 H        -1.750622         1.787688         3.051148
 H        -0.110606         2.919967         0.620955
