19
Iteration:   139
 O         0.298623        -0.207013         0.585352
 C        -0.658206         0.772040         0.227075
 C        -2.094529         0.421538         0.264300
 C        -2.180412         2.040529         0.312740
 C        -1.943912         2.381848        -1.178094
 C        -0.714344         1.355556        -1.311558
 O        -2.781745         2.793584         1.376738
 C        -1.496106         2.495154         2.216352
 C        -0.779482         2.105391         0.963047
 H         0.638559        -0.693470        -0.185284
 H        -2.440084        -0.146723        -0.605451
 H        -2.271927         0.027319         1.231359
 H        -2.911507         2.314008        -1.761795
 H        -1.609998         3.420637        -1.268363
 H        -0.977217         0.447433        -2.017145
 H         0.084619         1.907976        -1.764874
 H        -1.194936         3.501760         2.602705
 H        -1.650421         1.693575         2.982945
 H        -0.114706         2.925677         0.618611
