19
Iteration:  3648charge 0 multiplicity 1
 O         0.249307        -0.280541         0.358193
 C        -0.619468         0.770276         0.184436
 C        -2.162857         0.539148         0.317234
 C        -2.154999         2.169091         0.283961
 C        -1.688294         2.630456        -1.103510
 C        -0.628469         1.375770        -1.295550
 O        -2.865790         2.772072         1.369497
 C        -1.730637         2.112961         2.244782
 C        -0.760466         2.066394         1.029988
 H         1.036974         0.018836         0.844773
 H        -2.477506        -0.068447        -0.482036
 H        -2.655396         0.287593         1.202502
 H        -2.568044         2.754831        -1.858284
 H        -1.217896         3.606849        -1.128079
 H        -0.855499         0.703545        -2.149080
 H         0.320360         1.831964        -1.534365
 H        -1.356283         2.634376         3.123698
 H        -2.061607         1.211184         2.654193
 H         0.052785         2.829318         0.884394
