19
Iteration:  1711charge 0 multiplicity 1
 O         0.308003        -0.328829         0.400150
 C        -0.591780         0.789712         0.193290
 C        -2.156540         0.562573         0.400580
 C        -2.170118         2.076555         0.256358
 C        -1.866834         2.405375        -1.181839
 C        -0.660477         1.401706        -1.237319
 O        -2.794944         2.849677         1.313427
 C        -1.685575         2.428418         2.228715
 C        -0.727211         2.027368         1.075123
 H         0.604537        -0.659580        -0.490173
 H        -2.642552        -0.152741        -0.251287
 H        -2.348267         0.237833         1.413220
 H        -2.689879         2.150703        -1.901103
 H        -1.588554         3.377732        -1.254388
 H        -0.702946         0.570931        -1.964226
 H         0.258292         1.923717        -1.341854
 H        -1.227551         3.176519         2.778225
 H        -2.207334         1.621903         2.758217
 H         0.056484         2.768658         1.158485
