19
Iteration:   892charge 0 multiplicity 1
 O         0.271566        -0.373557         0.312655
 C        -0.649829         0.752284         0.251111
 C        -2.193743         0.498248         0.389091
 C        -2.146535         2.136627         0.272149
 C        -1.952269         2.320089        -1.207538
 C        -0.533626         1.568333        -1.262923
 O        -2.832408         2.671343         1.339202
 C        -1.644270         2.619131         2.215331
 C        -0.677272         2.004098         1.110457
 H         1.032464        -0.065310         0.863593
 H        -2.840548        -0.062866        -0.376950
 H        -2.452870         0.211411         1.410961
 H        -2.594349         1.730087        -1.757403
 H        -1.886965         3.395510        -1.618761
 H        -0.668882         0.714707        -1.928349
 H         0.415763         2.055523        -1.602764
 H        -1.323658         3.597157         2.406048
 H        -1.928417         2.002945         3.124863
 H         0.205993         2.509395         0.973080
