19
Iteration:  4787charge 0 multiplicity 1
 O         0.380757        -0.187803         0.254913
 C        -0.657476         0.763782         0.159650
 C        -2.233048         0.527834         0.240797
 C        -2.175354         2.180370         0.284785
 C        -1.609094         2.523797        -1.119223
 C        -0.562629         1.379004        -1.239203
 O        -2.835741         2.734519         1.334612
 C        -1.826590         2.242996         2.340154
 C        -0.801710         2.035470         1.166744
 H        -0.040392        -1.001951         0.639165
 H        -2.864666        -0.015972        -0.555572
 H        -2.494911         0.127895         1.267619
 H        -2.163850         2.632016        -2.072806
 H        -1.146329         3.559500        -1.015298
 H        -0.819191         0.695878        -2.014637
 H         0.452637         1.918035        -1.416435
 H        -1.592313         3.031662         3.082016
 H        -2.143213         1.255062         2.742010
 H        -0.095008         2.861173         1.040897
