19
Iteration:  3312charge 0 multiplicity 1
 O         0.257101        -0.458952         0.383604
 C        -0.621691         0.686925         0.130753
 C        -2.246450         0.533224         0.135034
 C        -2.084313         2.056705         0.302705
 C        -1.806215         2.527313        -1.048227
 C        -0.532625         1.687598        -1.244783
 O        -2.775545         2.763347         1.422592
 C        -1.743202         2.405000         2.252124
 C        -0.806547         1.923787         1.034798
 H         1.016166         0.022701         0.784406
 H        -2.912823         0.000744        -0.561692
 H        -2.577136         0.138918         1.063101
 H        -2.414268         2.221646        -1.911133
 H        -1.943359         3.521999        -1.005154
 H        -0.525503         1.023182        -2.172749
 H         0.391496         2.223387        -1.155479
 H        -1.179284         3.355515         2.518585
 H        -1.991570         1.697001         3.076089
 H        -0.059847         2.711095         0.854513
