19
Iteration:   155
 O         0.232821        -0.320452         0.548655
 C        -0.580030         0.770031         0.131436
 C        -2.121215         0.474039         0.490397
 C        -2.170086         1.985145         0.332247
 C        -1.901101         2.398679        -1.058362
 C        -0.682902         1.449270        -1.341404
 O        -2.857204         2.706774         1.373649
 C        -1.596436         2.569091         2.082589
 C        -0.661296         2.129067         0.847943
 H         0.894177        -0.519533        -0.163526
 H        -2.744410         0.000302        -0.282177
 H        -2.321633         0.056180         1.543447
 H        -2.589913         2.137928        -1.820827
 H        -1.642273         3.484942        -1.061290
 H        -0.942207         0.824811        -2.104070
 H         0.329944         1.932742        -1.468521
 H        -1.293348         3.453227         2.598529
 H        -1.687381         1.816893         2.840672
 H        -0.042477         2.967226         0.489423
