19
Iteration:  3066
 O         0.226350        -0.261241         0.395231
 C        -0.589808         0.804763         0.119885
 C        -2.128476         0.587702         0.317200
 C        -2.059353         2.140324         0.310753
 C        -1.843768         2.461638        -1.152649
 C        -0.616433         1.466141        -1.319330
 O        -2.834686         2.675051         1.415600
 C        -1.657656         2.322561         2.258215
 C        -0.727773         2.099472         1.027474
 H        -0.304269        -1.073944         0.474812
 H        -2.840698         0.086105        -0.457047
 H        -2.205531         0.205358         1.258245
 H        -2.607150         2.069311        -1.762674
 H        -1.728694         3.548420        -1.422098
 H        -0.822809         0.642774        -2.028207
 H         0.394509         1.783131        -1.545083
 H        -1.428017         3.013462         3.070771
 H        -1.958246         1.344492         2.813085
 H         0.136632         2.820912         1.025330
