19
Iteration:  2678charge 0 multiplicity 1
 O         0.207331        -0.305891         0.434008
 C        -0.616022         0.722305         0.054447
 C        -2.069329         0.638315         0.383073
 C        -2.074267         2.129981         0.319912
 C        -1.986214         2.287573        -1.205903
 C        -0.609830         1.429048        -1.342507
 O        -2.764099         2.711156         1.470334
 C        -1.604005         2.439949         2.260549
 C        -0.710517         2.193328         0.987265
 H        -0.292460        -1.147724         0.348341
 H        -2.815842        -0.122232        -0.130111
 H        -2.256696         0.270418         1.370222
 H        -2.952778         2.078845        -1.773968
 H        -1.725205         3.355100        -1.363513
 H        -0.674385         0.711763        -2.106902
 H         0.385714         1.976305        -1.520011
 H        -1.292138         3.363221         2.880442
 H        -1.931462         1.624323         2.916777
 H        -0.068532         2.967313         0.569268
