19
Iteration:  4343
 O         0.190641        -0.247884         0.389265
 C        -0.627394         0.742460         0.096452
 C        -2.278744         0.662002         0.248110
 C        -2.099120         2.219618         0.252654
 C        -1.732139         2.489818        -1.138952
 C        -0.545729         1.415972        -1.220710
 O        -2.848424         2.621153         1.449204
 C        -1.679883         2.233215         2.289429
 C        -0.701896         2.025049         0.990940
 H         0.711401         0.061095         1.154499
 H        -2.742604         0.318161        -0.649463
 H        -2.747105         0.210804         1.153696
 H        -2.535420         2.346127        -1.859524
 H        -1.306911         3.524337        -1.422638
 H        -0.749004         0.805649        -2.185791
 H         0.516082         1.790324        -1.289154
 H        -1.382010         3.055083         2.905279
 H        -1.886492         1.257749         2.812192
 H         0.038851         2.839877         0.889133
