19
Iteration:  1418
 O         0.279077        -0.309001         0.491611
 C        -0.624669         0.757319         0.122631
 C        -2.174449         0.586328         0.241815
 C        -2.105764         2.142612         0.245418
 C        -1.798531         2.488069        -1.168806
 C        -0.562510         1.382253        -1.278281
 O        -2.879959         2.629745         1.452813
 C        -1.662632         2.437616         2.232964
 C        -0.748564         2.182246         1.026856
 H        -0.049426        -1.215407         0.322615
 H        -2.606101        -0.096011        -0.537253
 H        -2.318388         0.279826         1.289788
 H        -2.659859         1.959383        -1.708562
 H        -1.648814         3.482998        -1.453899
 H        -0.894495         0.667524        -2.124226
 H         0.446572         1.654468        -1.361578
 H        -1.380227         3.427926         2.725029
 H        -1.616727         1.684422         3.119756
 H        -0.113442         2.953953         0.690623
