19
Iteration:  3786
 O         0.305374        -0.351145         0.412147
 C        -0.687207         0.716116         0.204924
 C        -2.234429         0.498813         0.246823
 C        -2.169541         2.162114         0.310498
 C        -1.797581         2.553298        -1.175585
 C        -0.552717         1.541424        -1.204565
 O        -2.804195         2.808474         1.420874
 C        -1.708104         2.207205         2.153401
 C        -0.725556         1.997104         1.009037
 H         1.104128         0.162424         0.643176
 H        -2.634465         0.101646        -0.745831
 H        -2.618444         0.141682         1.200698
 H        -2.601883         2.367516        -1.784565
 H        -1.560599         3.671114        -1.237283
 H        -0.705356         0.879205        -1.977369
 H         0.371381         2.088811        -1.405671
 H        -1.479782         2.791986         3.024039
 H        -1.952647         1.219870         2.626860
 H        -0.023723         2.785971         0.933598
