19
Iteration:  1075charge 0 multiplicity 1
 O         0.417827        -0.194457         0.347271
 C        -0.597702         0.778711         0.163376
 C        -2.297922         0.544161         0.348771
 C        -2.229344         2.017057         0.338747
 C        -1.718575         2.455039        -1.214239
 C        -0.674099         1.329339        -1.220324
 O        -2.845517         2.807978         1.341013
 C        -1.681827         2.293892         2.233301
 C        -0.769034         2.077389         1.027882
 H         0.680162        -0.359779         1.266730
 H        -2.789494        -0.026545        -0.411302
 H        -2.538241         0.288302         1.356964
 H        -2.411561         2.536928        -2.051464
 H        -1.172376         3.451691        -1.188317
 H        -0.907480         0.501958        -1.817103
 H         0.338041         1.760815        -1.550335
 H        -1.247380         3.217127         2.633601
 H        -2.033607         1.602939         3.035591
 H        -0.035932         2.908165         0.716129
