19
Iteration:  4567charge 0 multiplicity 1
 O         0.286008        -0.291765         0.331090
 C        -0.643809         0.791501         0.140869
 C        -2.152949         0.482131         0.303373
 C        -2.101734         2.058000         0.331316
 C        -1.704200         2.542173        -1.093039
 C        -0.551480         1.548484        -1.280239
 O        -2.910552         2.738526         1.354959
 C        -1.707974         2.350382         2.222663
 C        -0.769529         1.991827         1.067891
 H        -0.231896        -1.116051         0.487147
 H        -2.692626         0.004044        -0.499847
 H        -2.519761         0.147157         1.338587
 H        -2.596783         2.354452        -1.659904
 H        -1.345210         3.535407        -0.997689
 H        -0.680497         0.959806        -2.172849
 H         0.487606         2.059728        -1.213563
 H        -1.384546         3.131829         2.950501
 H        -2.035853         1.510571         2.823097
 H        -0.007257         2.737365         0.787905
