19
Iteration:   574
 O         0.291440        -0.303930         0.439492
 C        -0.587826         0.736587         0.277514
 C        -2.044966         0.532088         0.469327
 C        -2.048431         2.101132         0.300357
 C        -2.017049         2.295311        -1.223113
 C        -0.809972         1.299252        -1.396013
 O        -2.724940         2.874888         1.301697
 C        -1.686422         2.525657         2.275380
 C        -0.712959         2.069688         0.967135
 H         1.238460        -0.076632         0.310763
 H        -2.528485        -0.043925        -0.380919
 H        -2.366017         0.081999         1.455129
 H        -2.988053         2.012742        -1.731820
 H        -1.744807         3.337788        -1.457377
 H        -1.079691         0.465687        -2.050503
 H         0.049954         1.880338        -1.673451
 H        -1.310412         3.453249         2.710368
 H        -1.981144         1.765720         3.013902
 H        -0.040881         2.916123         1.037158
