19
Iteration:  2243charge 0 multiplicity 1
 O         0.381081        -0.164413         0.309366
 C        -0.674737         0.703841         0.141798
 C        -2.164030         0.489203         0.309265
 C        -2.157834         2.095576         0.295821
 C        -1.834314         2.319958        -1.132126
 C        -0.660782         1.305206        -1.261429
 O        -2.721342         2.936377         1.420562
 C        -1.686894         2.496567         2.234617
 C        -0.812106         1.991326         1.095044
 H         0.138362        -1.100770         0.250072
 H        -2.852262         0.095382        -0.415853
 H        -2.363212         0.100965         1.326528
 H        -2.761739         2.087702        -1.688035
 H        -1.546522         3.346808        -1.385332
 H        -0.877256         0.476947        -1.937112
 H         0.309496         1.769091        -1.595548
 H        -1.150342         3.265961         2.930204
 H        -1.931463         1.544380         2.745646
 H        -0.206269         2.899168         1.033644
