19
Iteration:   821charge 0 multiplicity 1
 O         0.413536        -0.067505         0.540372
 C        -0.681983         0.710539         0.134291
 C        -2.192690         0.531361         0.377331
 C        -2.055944         2.194428         0.302545
 C        -1.880166         2.407296        -1.225965
 C        -0.755536         1.240616        -1.336037
 O        -2.783605         2.792793         1.345449
 C        -1.638536         2.358378         2.261647
 C        -0.760264         2.050215         0.964288
 H         0.315159        -1.038189         0.528510
 H        -2.750155        -0.017492        -0.344964
 H        -2.325913         0.111276         1.385804
 H        -2.885242         2.059408        -1.715143
 H        -1.619879         3.398343        -1.534960
 H        -0.782667         0.415222        -2.110871
 H         0.205260         1.783118        -1.610630
 H        -1.397201         3.238314         2.954545
 H        -2.074028         1.548975         2.795171
 H         0.241839         2.641348         0.883686
