19
Iteration:   920charge 0 multiplicity 1
 O         0.208304        -0.323508         0.484412
 C        -0.603734         0.791571         0.176874
 C        -2.068401         0.439888         0.323963
 C        -2.201989         2.153667         0.306137
 C        -1.883336         2.342007        -1.138042
 C        -0.628926         1.437701        -1.211767
 O        -2.800190         2.763974         1.380012
 C        -1.583764         2.447320         2.220942
 C        -0.839329         2.106164         0.901629
 H         1.155030        -0.111004         0.266142
 H        -2.617869         0.154805        -0.535689
 H        -2.318823        -0.147373         1.207142
 H        -2.704386         2.048315        -1.908445
 H        -1.398227         3.273335        -1.349750
 H        -0.519585         0.692567        -2.013341
 H         0.263414         2.082072        -1.385153
 H        -1.161826         3.365062         2.800806
 H        -1.933867         1.660848         2.865849
 H        -0.170339         2.955891         0.412123
