19
Iteration:  2038charge 0 multiplicity 1
 O         0.309318        -0.349250         0.366521
 C        -0.641447         0.707103         0.247569
 C        -2.159004         0.546961         0.249394
 C        -2.196315         1.999809         0.301251
 C        -1.848903         2.441803        -1.150277
 C        -0.672177         1.381622        -1.269794
 O        -2.741701         2.808622         1.431464
 C        -1.612265         2.548316         2.222414
 C        -0.792983         2.070725         0.964741
 H         0.450434        -0.669000         1.264045
 H        -2.716348        -0.185799        -0.427144
 H        -2.411373         0.025205         1.261590
 H        -2.618696         2.446236        -1.960851
 H        -1.506333         3.506900        -1.181859
 H        -0.847976         0.651060        -2.058672
 H         0.263652         1.910547        -1.581558
 H        -1.261616         3.504071         2.688927
 H        -1.723545         1.797841         2.984423
 H        -0.212689         2.949235         0.597443
