19
Iteration:  1776
 O         0.248494        -0.273820         0.512007
 C        -0.670733         0.728435         0.125448
 C        -2.212831         0.477271         0.357692
 C        -2.163901         2.055504         0.306284
 C        -1.801750         2.464986        -1.124372
 C        -0.634695         1.375512        -1.281112
 O        -2.783191         2.780987         1.321045
 C        -1.581911         2.440166         2.224874
 C        -0.757399         2.138936         0.995035
 H         0.941575        -0.498565        -0.107901
 H        -2.699844        -0.097552        -0.417834
 H        -2.390909         0.062323         1.363751
 H        -2.621173         2.203285        -1.835356
 H        -1.551876         3.467807        -1.170088
 H        -0.921590         0.645993        -2.057149
 H         0.261440         1.875331        -1.540680
 H        -1.308349         3.314557         2.852110
 H        -1.835920         1.524188         2.824039
 H        -0.023866         2.865313         0.659439
