19
Iteration:   654charge 0 multiplicity 1
 O         0.298537        -0.182042         0.639053
 C        -0.636597         0.745967         0.232728
 C        -2.110403         0.610319         0.373088
 C        -2.131503         2.138682         0.291502
 C        -1.996085         2.282350        -1.136736
 C        -0.755079         1.351496        -1.326350
 O        -2.745951         2.693679         1.342720
 C        -1.544254         2.469225         2.095788
 C        -0.695153         2.069196         0.895340
 H         0.280901        -0.961445         0.003291
 H        -2.679429         0.098420        -0.436696
 H        -2.469873         0.320370         1.367055
 H        -2.877840         2.034740        -1.628146
 H        -1.768700         3.393178        -1.426916
 H        -0.624349         0.564413        -2.021253
 H         0.051993         1.986590        -1.583155
 H        -1.208738         3.336012         2.408280
 H        -1.709098         1.787057         2.902712
 H         0.015553         2.894150         0.751367
