19
Iteration:   241
 O         0.385810        -0.074364         0.502680
 C        -0.717594         0.743869         0.176318
 C        -2.124071         0.435931         0.548722
 C        -2.153957         2.096527         0.249233
 C        -1.989037         2.466674        -1.277515
 C        -0.754743         1.297777        -1.356685
 O        -2.701151         2.799882         1.396360
 C        -1.562840         2.390219         2.113756
 C        -0.762991         2.000789         0.902020
 H         0.192485        -0.490200         1.372013
 H        -2.752914        -0.288775         0.153905
 H        -2.219568         0.278714         1.644582
 H        -2.811149         2.382664        -1.947789
 H        -1.435192         3.478202        -1.397015
 H        -0.986964         0.452666        -2.000188
 H         0.219397         1.737431        -1.658032
 H        -1.116318         3.100580         2.771215
 H        -1.865965         1.572284         2.771743
 H         0.027596         2.640545         0.767656
