19
Iteration:  3630
 O         0.290338        -0.191983         0.397364
 C        -0.678775         0.713841         0.080540
 C        -2.243340         0.565037         0.173122
 C        -2.122732         2.142657         0.302026
 C        -1.666766         2.513108        -1.096414
 C        -0.626987         1.439971        -1.259197
 O        -2.739847         2.758783         1.408169
 C        -1.772411         2.213564         2.279409
 C        -0.784508         1.953227         1.102097
 H         0.983884         0.404115         0.731623
 H        -2.964764         0.218964        -0.659723
 H        -2.353952        -0.197889         1.018858
 H        -2.457264         2.546909        -1.894113
 H        -1.356100         3.572812        -0.983576
 H        -1.040479         0.648232        -2.024316
 H         0.358072         1.668532        -1.664862
 H        -1.478035         3.057078         2.989111
 H        -2.187454         1.301714         2.839492
 H        -0.145140         2.856799         0.919988
