19
Iteration:  1757charge 0 multiplicity 1
 O         0.361518        -0.298905         0.397297
 C        -0.630976         0.730176         0.265007
 C        -2.139331         0.528468         0.363307
 C        -2.172322         2.114231         0.272969
 C        -1.900701         2.347535        -1.204378
 C        -0.628800         1.364839        -1.254063
 O        -2.735120         2.991835         1.397097
 C        -1.734883         2.343754         2.239248
 C        -0.805195         2.000532         1.032386
 H         0.842307        -0.275637        -0.443848
 H        -2.652562        -0.018127        -0.448050
 H        -2.623878         0.227086         1.340008
 H        -2.676443         2.161292        -1.987901
 H        -1.356555         3.291122        -1.387781
 H        -0.807502         0.617395        -2.067904
 H         0.331114         1.906284        -1.379217
 H        -1.349848         3.252424         2.657622
 H        -2.123220         1.495344         2.888790
 H        -0.039036         2.751046         0.694020
