19
Iteration:  1361
 O         0.455779        -0.232537         0.507920
 C        -0.663622         0.730183         0.183669
 C        -2.242596         0.511495         0.346084
 C        -2.059909         2.137601         0.289661
 C        -1.898386         2.393097        -1.151428
 C        -0.651753         1.428067        -1.365244
 O        -2.783193         2.925947         1.304293
 C        -1.774371         2.301805         2.256453
 C        -0.733981         1.981871         1.048094
 H         0.638570        -0.866436        -0.202708
 H        -2.853061         0.104544        -0.445991
 H        -2.409718         0.010068         1.325330
 H        -2.817530         2.375042        -1.770774
 H        -1.427039         3.348499        -1.093680
 H        -0.725120         0.624912        -2.077281
 H         0.325007         1.915658        -1.588980
 H        -1.419595         3.034178         2.911426
 H        -2.304855         1.368924         2.720920
 H        -0.047592         2.834784         1.081857
