19
Iteration:  3766
 O         0.255255        -0.273067         0.400812
 C        -0.624915         0.754714         0.161491
 C        -2.080057         0.558159         0.191254
 C        -2.062916         2.176742         0.261296
 C        -1.743685         2.547877        -1.169275
 C        -0.681857         1.372420        -1.317965
 O        -2.777723         2.818225         1.387449
 C        -1.807865         2.148029         2.405789
 C        -0.818787         2.040833         1.081015
 H         1.154561         0.047256         0.209889
 H        -2.554779         0.098388        -0.721488
 H        -2.412477         0.079533         1.111084
 H        -2.626103         2.458195        -1.785303
 H        -1.395588         3.531909        -1.347170
 H        -0.897265         0.618358        -2.048093
 H         0.255071         1.909314        -1.679547
 H        -1.491259         2.874018         3.200975
 H        -2.354183         1.340474         2.936349
 H        -0.060020         2.779741         1.288342
