19
Iteration:  3879charge 0 multiplicity 1
 O         0.285241        -0.277988         0.383400
 C        -0.653751         0.741919         0.119012
 C        -2.188524         0.485847         0.343840
 C        -2.186284         2.099856         0.261406
 C        -1.705026         2.571871        -1.160011
 C        -0.542035         1.522384        -1.279021
 O        -2.785031         2.880137         1.362674
 C        -1.743047         2.185778         2.303671
 C        -0.875396         1.917501         1.104465
 H         1.067145        -0.051696        -0.150417
 H        -2.673687        -0.156376        -0.351906
 H        -2.320392         0.193057         1.394965
 H        -2.508619         2.393009        -1.943930
 H        -1.401254         3.573148        -1.270827
 H        -0.795412         0.667193        -2.053298
 H         0.448245         1.886388        -1.644687
 H        -1.335897         2.969945         3.015695
 H        -2.226486         1.509995         3.009538
 H        -0.114077         2.725139         0.879191
