19
Iteration:  2214
 O         0.316325        -0.225321         0.460494
 C        -0.644734         0.755827         0.214087
 C        -2.148042         0.601172         0.419946
 C        -2.149698         2.140635         0.223374
 C        -1.906995         2.411785        -1.195073
 C        -0.685126         1.419434        -1.263850
 O        -2.797467         2.774977         1.391734
 C        -1.566016         2.323372         2.127413
 C        -0.708164         2.031566         0.958575
 H        -0.050143        -1.007420         0.881177
 H        -2.852433         0.028666        -0.335423
 H        -2.578240         0.253511         1.381600
 H        -2.759054         2.117859        -1.822586
 H        -1.623764         3.497647        -1.416735
 H        -0.951104         0.619434        -1.978549
 H         0.255515         1.872730        -1.647644
 H        -1.197453         3.101079         2.858392
 H        -1.578244         1.435112         2.794136
 H         0.162174         2.734104         0.974077
