19
Iteration:   820
 O         0.412403        -0.064838         0.549562
 C        -0.685329         0.703250         0.134174
 C        -2.194547         0.538907         0.382461
 C        -2.048295         2.190337         0.296470
 C        -1.881831         2.405370        -1.224251
 C        -0.754376         1.251877        -1.344301
 O        -2.785989         2.789270         1.344702
 C        -1.638356         2.360820         2.268380
 C        -0.752776         2.047317         0.965229
 H         0.315735        -1.026264         0.494647
 H        -2.783986         0.001305        -0.351227
 H        -2.335759         0.088690         1.379214
 H        -2.864763         2.038551        -1.712775
 H        -1.641338         3.397451        -1.571230
 H        -0.794631         0.435994        -2.124454
 H         0.193091         1.752560        -1.599943
 H        -1.388906         3.243965         2.936878
 H        -2.066504         1.509435         2.785389
 H         0.235537         2.652109         0.859905
