19
Iteration:  4623
 O         0.230611        -0.219486         0.552994
 C        -0.657024         0.820321         0.106043
 C        -2.130334         0.592475         0.242430
 C        -2.136195         2.135487         0.262136
 C        -1.807629         2.541623        -1.138516
 C        -0.571119         1.461094        -1.252694
 O        -2.781595         2.691474         1.395085
 C        -1.694089         2.189875         2.235819
 C        -0.786622         2.011419         0.989259
 H         0.332664        -1.003675        -0.003055
 H        -2.706026         0.142512        -0.577580
 H        -2.430689         0.059403         1.178728
 H        -2.622833         2.559750        -1.825647
 H        -1.458671         3.582472        -1.212924
 H        -0.641852         0.837079        -2.114204
 H         0.442670         2.053308        -1.340301
 H        -1.339492         2.957942         2.865900
 H        -2.048199         1.275094         2.685907
 H         0.101288         2.605392         0.986729
