19
Iteration:  1739
 O         0.360048        -0.246859         0.335219
 C        -0.685944         0.716913         0.185824
 C        -2.231918         0.502641         0.391706
 C        -2.026491         2.192848         0.320107
 C        -1.869336         2.316915        -1.198413
 C        -0.658672         1.367251        -1.201934
 O        -2.764128         2.931251         1.251121
 C        -1.726513         2.386108         2.316366
 C        -0.735917         2.020111         1.100749
 H         0.801273        -0.296268        -0.537551
 H        -2.950881         0.052714        -0.353008
 H        -2.370390        -0.001406         1.347026
 H        -2.685465         1.782469        -1.630719
 H        -1.804806         3.430654        -1.662180
 H        -0.741028         0.500817        -1.865290
 H         0.408150         1.792844        -1.305559
 H        -1.292097         3.062872         3.186582
 H        -2.326116         1.538113         2.490340
 H         0.066996         2.808061         1.116224
