19
Iteration:   914charge 0 multiplicity 1
 O         0.197145        -0.339166         0.437888
 C        -0.620179         0.762190         0.197996
 C        -2.091877         0.468921         0.289174
 C        -2.148896         2.079568         0.316968
 C        -1.909358         2.316969        -1.201571
 C        -0.622531         1.427162        -1.190088
 O        -2.793959         2.740218         1.378214
 C        -1.600440         2.535378         2.243367
 C        -0.766795         2.127026         0.953506
 H         1.097038         0.016944         0.430868
 H        -2.618997         0.110381        -0.654870
 H        -2.496746        -0.027004         1.184877
 H        -2.719362         2.009871        -1.776096
 H        -1.674989         3.441349        -1.345976
 H        -0.415659         0.836927        -2.095406
 H         0.185134         2.209608        -1.186287
 H        -1.202025         3.395329         2.667411
 H        -1.833430         1.671416         2.924453
 H        -0.237906         2.948487         0.624851
