19
Iteration:  4172
 O         0.282085        -0.238143         0.282611
 C        -0.701291         0.817314         0.192164
 C        -2.271658         0.579677         0.151455
 C        -2.126999         2.103127         0.298128
 C        -1.690336         2.534032        -1.123183
 C        -0.536530         1.357267        -1.144547
 O        -2.815347         2.736385         1.408433
 C        -1.642801         2.202198         2.313225
 C        -0.804216         2.079537         0.996588
 H         0.502001        -0.296433         1.231495
 H        -2.647204         0.153080        -0.807352
 H        -2.623479        -0.011153         1.033702
 H        -2.546145         2.243194        -1.872798
 H        -1.334635         3.540632        -1.210967
 H        -0.758797         0.677444        -1.940634
 H         0.339401         1.844939        -1.192567
 H        -1.506250         3.110569         3.007486
 H        -2.046236         1.379103         2.778188
 H        -0.140481         2.954230         0.844865
