19
Iteration:   269charge 0 multiplicity 1
 O         0.352250        -0.196074         0.490227
 C        -0.610018         0.809971         0.201974
 C        -2.167118         0.569088         0.315693
 C        -2.138700         2.075681         0.375767
 C        -1.910157         2.310080        -1.191618
 C        -0.726668         1.242568        -1.309479
 O        -2.839212         2.676365         1.499834
 C        -1.458583         2.578015         2.123771
 C        -0.751569         2.198334         0.887070
 H        -0.052817        -1.028837         0.817151
 H        -2.748435         0.196114        -0.600855
 H        -2.652239        -0.020627         1.087127
 H        -2.803869         2.057481        -1.825452
 H        -1.453812         3.235053        -1.432875
 H        -1.149363         0.290938        -1.756083
 H         0.156346         1.621686        -1.791580
 H        -1.156021         3.411476         2.789366
 H        -1.540268         1.688292         2.813716
 H        -0.227576         3.111234         0.368764
