19
Iteration:  2249charge 0 multiplicity 1
 O         0.393130        -0.181688         0.292893
 C        -0.644867         0.707277         0.156165
 C        -2.182056         0.492249         0.355543
 C        -2.144812         2.061915         0.328477
 C        -1.847316         2.341299        -1.110871
 C        -0.640129         1.319292        -1.246344
 O        -2.768338         2.983194         1.382589
 C        -1.676008         2.449766         2.248250
 C        -0.805268         1.997857         1.075349
 H         0.062221        -1.071046         0.124509
 H        -2.702142         0.059447        -0.567273
 H        -2.373845         0.084202         1.335620
 H        -2.674925         2.054128        -1.780079
 H        -1.536887         3.356880        -1.345894
 H        -1.054413         0.518195        -1.916560
 H         0.208085         1.820293        -1.642699
 H        -1.280876         3.267604         2.721137
 H        -2.006084         1.635126         2.931840
 H         0.073706         2.673463         0.795288
