19
Iteration:   846
 O         0.401410        -0.220110         0.307491
 C        -0.574873         0.776447         0.265546
 C        -2.146513         0.477475         0.444092
 C        -2.186270         1.969165         0.281234
 C        -1.783247         2.406585        -1.188908
 C        -0.736534         1.342472        -1.231089
 O        -2.797523         2.909687         1.348823
 C        -1.660421         2.423931         2.214888
 C        -0.832809         2.122048         0.982245
 H         0.241553        -0.857719         1.015774
 H        -2.530163        -0.021639        -0.445653
 H        -2.440494        -0.056466         1.336536
 H        -2.490632         2.095362        -1.985076
 H        -1.556173         3.497057        -1.216545
 H        -1.082921         0.510956        -1.843038
 H         0.314713         1.524773        -1.686190
 H        -1.369849         3.214913         2.929478
 H        -1.995900         1.539715         2.746294
 H        -0.279289         2.958889         0.568054
