19
Iteration:  2643
 O         0.321484        -0.247019         0.332566
 C        -0.668938         0.708073         0.224045
 C        -2.169993         0.520470         0.389403
 C        -2.140686         2.065102         0.284146
 C        -1.996977         2.394790        -1.164255
 C        -0.659042         1.396285        -1.198439
 O        -2.741381         2.773087         1.418691
 C        -1.573398         2.508328         2.212293
 C        -0.718726         2.088207         0.967756
 H        -0.001052        -1.051753        -0.128641
 H        -2.573113        -0.103826        -0.472244
 H        -2.497117         0.336627         1.452213
 H        -2.676683         2.140471        -2.020702
 H        -1.493444         3.370411        -1.309325
 H        -0.836850         0.596256        -1.931728
 H         0.322264         1.850040        -1.393387
 H        -1.001200         3.300145         2.704206
 H        -1.939555         1.770639         2.986304
 H        -0.030340         2.848359         0.658137
