19
Iteration:  3530
 O         0.323970        -0.351278         0.340086
 C        -0.647883         0.729551         0.229796
 C        -2.260028         0.561172         0.215438
 C        -2.091585         2.124426         0.291261
 C        -1.796565         2.564790        -1.062085
 C        -0.558676         1.490930        -1.200441
 O        -2.828213         2.750280         1.338212
 C        -1.726276         2.283997         2.256529
 C        -0.786436         1.998093         1.101596
 H         0.928924         0.076647        -0.291255
 H        -2.576944         0.211432        -0.807657
 H        -2.725806         0.030129         1.042570
 H        -2.586867         2.431166        -1.875777
 H        -1.313805         3.490782        -1.253514
 H        -0.705903         0.652118        -2.018597
 H         0.367792         2.019355        -1.348059
 H        -1.327759         3.021710         3.019733
 H        -2.133595         1.466523         2.872586
 H        -0.032934         2.820018         0.966970
