19
Iteration:  4450
 O         0.244711        -0.292867         0.394185
 C        -0.642764         0.787330         0.163883
 C        -2.150152         0.555809         0.193870
 C        -2.121504         2.072792         0.290149
 C        -1.736703         2.495872        -1.125746
 C        -0.546251         1.502566        -1.349255
 O        -2.851311         2.688875         1.415075
 C        -1.688150         2.317926         2.302171
 C        -0.758091         2.096962         1.031637
 H        -0.287854        -0.935252         0.899495
 H        -2.709947         0.226805        -0.676478
 H        -2.590496         0.059784         1.092841
 H        -2.585025         2.387777        -1.750720
 H        -1.269360         3.526325        -0.907921
 H        -0.922619         0.729895        -1.963567
 H         0.501781         1.793453        -1.461679
 H        -1.319887         3.174515         2.788521
 H        -1.941443         1.536592         3.122505
 H        -0.024528         2.858351         0.962515
