19
Iteration:  4164
 O         0.263091        -0.218930         0.250148
 C        -0.726676         0.748147         0.212718
 C        -2.237990         0.589158         0.216072
 C        -2.117158         2.116870         0.324003
 C        -1.705949         2.479353        -1.177006
 C        -0.556306         1.453098        -1.176761
 O        -2.804031         2.758389         1.360234
 C        -1.690377         2.211149         2.301890
 C        -0.803849         2.066472         1.109678
 H         0.563577        -0.244053         1.178818
 H        -2.513717        -0.024835        -0.673048
 H        -2.646653        -0.003621         0.982698
 H        -2.481087         2.342878        -1.963632
 H        -1.249425         3.486739        -1.411752
 H        -0.680438         0.665246        -1.933927
 H         0.479783         1.842199        -1.375262
 H        -1.314140         2.844709         3.115324
 H        -1.957779         1.290044         2.856021
 H        -0.071792         2.848149         0.866028
