19
Iteration:  4090
 O         0.294184        -0.236417         0.241911
 C        -0.678825         0.722575         0.205715
 C        -2.173675         0.544306         0.237886
 C        -2.141373         2.116046         0.270770
 C        -1.691805         2.524570        -1.189187
 C        -0.542984         1.469857        -1.110375
 O        -2.887924         2.653230         1.411909
 C        -1.623101         2.342219         2.270535
 C        -0.858508         2.036950         1.065855
 H        -0.134599        -0.920152         0.779666
 H        -2.744403         0.085573        -0.590532
 H        -2.623181         0.329912         1.198121
 H        -2.326810         2.396962        -1.991645
 H        -1.362409         3.604601        -1.213446
 H        -0.542209         0.814320        -2.012117
 H         0.535309         1.964520        -1.256021
 H        -1.414422         3.253446         2.730899
 H        -1.946647         1.690274         3.190710
 H         0.000156         2.675265         0.823888
