19
Iteration:  2553charge 0 multiplicity 1
 O         0.283011        -0.272101         0.480641
 C        -0.669128         0.734772         0.111633
 C        -2.194326         0.587711         0.405577
 C        -2.121904         2.169447         0.320074
 C        -1.968619         2.350558        -1.256274
 C        -0.631619         1.430161        -1.272626
 O        -2.757995         2.703576         1.422647
 C        -1.570201         2.476468         2.246576
 C        -0.683360         2.028575         0.972036
 H         0.329742        -0.915143        -0.264074
 H        -2.894126         0.066561        -0.235941
 H        -2.169225         0.241284         1.462816
 H        -2.791591         1.910489        -1.821015
 H        -1.756488         3.409343        -1.520024
 H        -0.776918         0.677544        -2.106926
 H         0.091122         2.101112        -1.574532
 H        -1.022647         3.318241         2.612786
 H        -1.848188         1.747203         3.054798
 H        -0.070152         2.853104         0.763352
