19
Iteration:  3944charge 0 multiplicity 1
 O         0.285418        -0.323285         0.372915
 C        -0.635122         0.697566         0.114725
 C        -2.139829         0.590145         0.310081
 C        -2.150898         2.140577         0.323911
 C        -1.745340         2.596114        -1.174730
 C        -0.494450         1.533909        -1.313126
 O        -2.912162         2.676423         1.433496
 C        -1.769262         2.322128         2.306451
 C        -0.755428         2.020404         1.008544
 H        -0.117543        -1.220016         0.411838
 H        -2.665092         0.036009        -0.424809
 H        -2.221564         0.301091         1.367246
 H        -2.510457         2.370247        -1.989486
 H        -1.392110         3.561553        -1.274821
 H        -0.521518         0.767461        -2.180800
 H         0.520154         2.011009        -1.310170
 H        -1.353267         3.101223         3.081757
 H        -1.925064         1.333205         2.787309
 H        -0.086525         2.923929         0.858738
