19
Iteration:  2406charge 0 multiplicity 1
 O         0.266763        -0.360477         0.257931
 C        -0.699170         0.739748         0.131215
 C        -2.190592         0.566918         0.443898
 C        -2.087586         2.088298         0.308910
 C        -1.894888         2.384040        -1.148315
 C        -0.640282         1.414832        -1.243917
 O        -2.806124         2.741916         1.411256
 C        -1.625064         2.517436         2.199533
 C        -0.666873         2.042119         1.008220
 H         0.872465        -0.273250         1.010779
 H        -2.877753         0.151843        -0.248990
 H        -2.340875         0.126891         1.418244
 H        -2.702490         2.046159        -1.805983
 H        -1.738942         3.445385        -1.282246
 H        -0.558728         0.791645        -2.111636
 H         0.327028         2.000123        -1.275884
 H        -1.515849         3.530030         2.644515
 H        -1.867654         1.790448         2.963882
 H         0.102694         2.884253         0.718442
