19
Iteration:  2242
 O         0.380753        -0.165163         0.313088
 C        -0.677693         0.706697         0.141974
 C        -2.165723         0.489195         0.305427
 C        -2.155720         2.100996         0.297119
 C        -1.834730         2.321588        -1.139394
 C        -0.664874         1.305944        -1.265088
 O        -2.716586         2.928690         1.422234
 C        -1.684528         2.499123         2.238962
 C        -0.810386         1.994404         1.091742
 H         0.146211        -1.096570         0.269607
 H        -2.853700         0.088510        -0.375565
 H        -2.374125         0.101629         1.308725
 H        -2.762170         2.092810        -1.692006
 H        -1.553940         3.326771        -1.381149
 H        -0.846000         0.469048        -1.952230
 H         0.309650         1.749840        -1.572577
 H        -1.168654         3.226889         2.933544
 H        -1.941821         1.551714         2.752553
 H        -0.231712         2.915045         1.033632
