19
Iteration:  1706charge 0 multiplicity 1
 O         0.315955        -0.353963         0.427720
 C        -0.601598         0.785792         0.199351
 C        -2.142126         0.502928         0.387162
 C        -2.174190         2.100137         0.270894
 C        -1.888279         2.438744        -1.207131
 C        -0.636986         1.419282        -1.222207
 O        -2.831866         2.831144         1.324683
 C        -1.636616         2.436409         2.218753
 C        -0.760039         2.040482         1.061081
 H         0.541144        -0.698073        -0.434128
 H        -2.782894        -0.088703        -0.322975
 H        -2.212731         0.151589         1.437946
 H        -2.600491         2.248915        -1.991931
 H        -1.491725         3.555977        -1.358210
 H        -0.844065         0.618572        -1.943183
 H         0.412766         1.837754        -1.422232
 H        -1.204950         3.232128         2.979033
 H        -2.154235         1.699399         2.839690
 H         0.086413         2.769139         0.826589
