19
Iteration:  4304charge 0 multiplicity 1
 O         0.284949        -0.383136         0.376695
 C        -0.675284         0.726802         0.155679
 C        -2.133621         0.519324         0.200771
 C        -2.134995         2.060743         0.315088
 C        -1.782294         2.636203        -1.068251
 C        -0.602620         1.492963        -1.242852
 O        -2.809387         2.795940         1.403501
 C        -1.733700         2.306477         2.222195
 C        -0.766918         2.002946         0.998796
 H         0.719309        -0.381593         1.257446
 H        -2.589273         0.020343        -0.716173
 H        -2.622072         0.166215         1.090773
 H        -2.521106         2.471145        -1.926722
 H        -1.252344         3.607947        -1.182056
 H        -0.705340         0.850374        -2.120876
 H         0.351881         1.915683        -1.432302
 H        -1.526411         3.095578         3.069045
 H        -2.044267         1.523059         2.884604
 H        -0.049712         2.821453         0.752800
