19
Iteration:  4754
 O         0.362046        -0.198418         0.545804
 C        -0.692794         0.726208         0.140002
 C        -2.213655         0.546886         0.097730
 C        -2.112664         2.257269         0.287953
 C        -1.747741         2.612281        -1.151683
 C        -0.589156         1.456276        -1.234736
 O        -2.820040         2.680089         1.378370
 C        -1.690099         2.180348         2.277028
 C        -0.816000         1.992183         1.056955
 H         0.017196        -1.095119         0.365085
 H        -2.801151         0.033117        -0.733295
 H        -2.659246         0.169369         1.068369
 H        -2.388864         2.266111        -1.968329
 H        -1.364778         3.657682        -1.278983
 H        -0.805438         0.861495        -2.071922
 H         0.452101         1.875977        -1.562854
 H        -1.417819         2.953078         3.058709
 H        -1.968301         1.266156         2.840250
 H         0.031652         2.699425         0.963108
