19
Iteration:  3077charge 0 multiplicity 1
 O         0.283052        -0.259370         0.361644
 C        -0.645656         0.819078         0.210877
 C        -2.125074         0.527714         0.286427
 C        -2.088655         2.257298         0.286166
 C        -1.839049         2.492728        -1.244506
 C        -0.627776         1.362850        -1.291171
 O        -2.795863         2.668414         1.486304
 C        -1.679313         2.298557         2.288274
 C        -0.744032         2.119421         1.042016
 H        -0.315244        -0.930673         0.709707
 H        -2.447865        -0.004446        -0.714052
 H        -2.632260         0.081230         1.057721
 H        -2.740415         2.246120        -1.704964
 H        -1.436729         3.486824        -1.602142
 H        -0.837661         0.586429        -2.043798
 H         0.218742         1.976219        -1.578137
 H        -1.370905         3.032758         3.029640
 H        -1.882152         1.243980         2.717894
 H         0.068757         2.856273         0.769037
