19
Iteration:   925charge 0 multiplicity 1
 O         0.230904        -0.301519         0.515764
 C        -0.609728         0.793635         0.158777
 C        -2.078838         0.445840         0.349690
 C        -2.213745         2.138060         0.295202
 C        -1.881496         2.368755        -1.125598
 C        -0.606230         1.427270        -1.249209
 O        -2.818631         2.807484         1.396125
 C        -1.576669         2.395574         2.192499
 C        -0.847291         2.119687         0.884287
 H         1.128324        -0.226394         0.167920
 H        -2.615462        -0.052831        -0.527507
 H        -2.211008        -0.149067         1.270022
 H        -2.560514         2.176956        -1.891340
 H        -1.399796         3.364693        -1.398036
 H        -0.761084         0.566736        -1.942187
 H         0.340491         1.988084        -1.486472
 H        -1.273441         3.180808         2.801274
 H        -1.889278         1.586376         2.899973
 H        -0.176897         2.850940         0.595463
