19
Iteration:  3290charge 0 multiplicity 1
 O         0.168649        -0.374913         0.218316
 C        -0.610388         0.790278         0.138220
 C        -2.140584         0.467180         0.225091
 C        -2.121524         2.096732         0.327934
 C        -1.786865         2.515805        -1.133577
 C        -0.541613         1.517812        -1.178309
 O        -2.874568         2.747284         1.356955
 C        -1.673803         2.410777         2.317933
 C        -0.740468         1.992803         1.143210
 H         0.829925        -0.338868         0.923849
 H        -2.572680        -0.078822        -0.627528
 H        -2.651641         0.057029         1.077055
 H        -2.599458         2.441629        -1.893192
 H        -1.496770         3.491530        -1.305049
 H        -0.459057         0.807573        -2.061061
 H         0.289312         2.212053        -1.147186
 H        -1.305384         3.354451         2.827435
 H        -2.021148         1.524026         2.889193
 H         0.075999         2.714104         1.158706
