19
Iteration:   668
 O         0.348664        -0.158547         0.671566
 C        -0.658203         0.791780         0.200092
 C        -2.180924         0.555297         0.399345
 C        -2.048897         2.082605         0.234561
 C        -2.061209         2.365205        -1.299093
 C        -0.754167         1.359785        -1.297617
 O        -2.726356         2.732067         1.341846
 C        -1.533616         2.388185         2.186841
 C        -0.674303         2.088485         0.919343
 H         0.037168        -1.047883         0.490202
 H        -2.722558        -0.047417        -0.287535
 H        -2.510281         0.308745         1.384473
 H        -2.991962         1.942255        -1.831911
 H        -1.807875         3.328410        -1.656801
 H        -0.974810         0.655422        -2.159426
 H         0.100270         2.072354        -1.424051
 H        -1.176729         3.307130         2.751442
 H        -1.716510         1.606166         2.901547
 H         0.170343         2.773726         0.642138
