19
Iteration:  4614
 O         0.217670        -0.190889         0.518524
 C        -0.652755         0.732879         0.155467
 C        -2.229157         0.605545         0.171269
 C        -2.077727         2.140355         0.265784
 C        -1.790204         2.489619        -1.160121
 C        -0.553470         1.488592        -1.250190
 O        -2.826909         2.674870         1.438767
 C        -1.650564         2.181175         2.231824
 C        -0.724019         2.105040         1.011928
 H         0.136000        -1.065408         0.117426
 H        -2.618280         0.097489        -0.796201
 H        -2.685433         0.158554         1.064768
 H        -2.581691         2.104802        -1.812331
 H        -1.427550         3.572018        -1.180430
 H        -0.556099         0.758006        -2.084043
 H         0.290425         2.263417        -1.383607
 H        -1.377931         2.978230         2.885571
 H        -1.933882         1.280898         2.920892
 H         0.055444         2.839221         0.985933
