19
Iteration:  4580charge 0 multiplicity 1
 O         0.267322        -0.269951         0.384648
 C        -0.643582         0.707430         0.156078
 C        -2.146522         0.559549         0.180047
 C        -2.128037         2.155303         0.245585
 C        -1.804811         2.490371        -1.186451
 C        -0.513171         1.511420        -1.204132
 O        -2.861437         2.707054         1.486136
 C        -1.706602         2.293508         2.287209
 C        -0.775426         2.032547         1.040945
 H        -0.240261        -1.083300         0.360638
 H        -2.604474        -0.013102        -0.678031
 H        -2.498479         0.195433         1.205156
 H        -2.433377         2.385608        -2.074397
 H        -1.464793         3.558718        -1.346330
 H        -0.419508         0.808911        -2.015987
 H         0.450511         2.193951        -1.284121
 H        -1.318287         3.204651         2.687189
 H        -1.840732         1.544453         3.156030
 H        -0.089969         2.853515         0.968982
