19
Iteration:  4946charge 0 multiplicity 1
 O         0.214791        -0.355353         0.224020
 C        -0.676875         0.783258         0.208935
 C        -2.151993         0.498516         0.192123
 C        -2.157713         2.100601         0.330046
 C        -1.725634         2.510558        -1.170824
 C        -0.400714         1.500720        -1.026247
 O        -2.910700         2.751435         1.345841
 C        -1.755354         2.334912         2.291156
 C        -0.822983         2.033014         1.114832
 H         1.036365        -0.143311        -0.300446
 H        -2.426518         0.190487        -0.793213
 H        -2.601717        -0.178379         1.048124
 H        -2.447830         2.002231        -1.860651
 H        -1.428359         3.576193        -1.398965
 H        -0.265514         1.130325        -2.142854
 H         0.515627         2.048376        -0.919991
 H        -1.517500         3.241248         2.987811
 H        -1.931240         1.425967         2.827557
 H        -0.097252         2.870386         1.294844
