19
Iteration:  1828charge 0 multiplicity 1
 O         0.192429        -0.346895         0.383494
 C        -0.682647         0.695654         0.177987
 C        -2.119682         0.526808         0.265846
 C        -2.111047         2.101855         0.311638
 C        -1.834166         2.362723        -1.189024
 C        -0.629694         1.346702        -1.216618
 O        -2.863741         2.807224         1.412980
 C        -1.583955         2.482732         2.309705
 C        -0.722220         2.162227         0.940153
 H         1.038447         0.070292         0.603964
 H        -2.573205        -0.073345        -0.506097
 H        -2.425724         0.148664         1.232632
 H        -2.700930         2.174187        -1.822212
 H        -1.531710         3.399675        -1.243132
 H        -0.651778         0.526830        -1.944771
 H         0.251724         1.961824        -1.376049
 H        -1.178674         3.366551         2.766160
 H        -1.857746         1.700398         2.912116
 H        -0.018355         2.856224         0.577934
