19
Iteration:  1698charge 0 multiplicity 1
 O         0.308935        -0.343786         0.472370
 C        -0.667174         0.704824         0.204020
 C        -2.113153         0.436947         0.369439
 C        -2.147314         2.121589         0.312611
 C        -1.848905         2.503190        -1.210786
 C        -0.583991         1.432698        -1.225659
 O        -2.859156         2.812671         1.354919
 C        -1.622388         2.443606         2.247607
 C        -0.782877         2.085504         0.967400
 H         0.446190        -0.765621        -0.373119
 H        -2.757699         0.010087        -0.394122
 H        -2.304529         0.050315         1.339124
 H        -2.564966         2.273994        -1.976547
 H        -1.519415         3.500887        -1.363361
 H        -0.935951         0.714349        -1.936445
 H         0.335616         1.810005        -1.627412
 H        -1.384683         3.359532         2.813698
 H        -1.748179         1.646519         2.958996
 H        -0.154685         2.803708         0.496691
