19
Iteration:   762charge 0 multiplicity 1
 O         0.250348        -0.354050         0.360010
 C        -0.599294         0.771095         0.203772
 C        -2.163278         0.456258         0.439998
 C        -2.187182         2.008047         0.279621
 C        -1.834906         2.297085        -1.129905
 C        -0.616432         1.389227        -1.317721
 O        -2.816127         2.830435         1.379951
 C        -1.636135         2.612142         2.205663
 C        -0.778277         2.148314         0.992032
 H         1.173916        -0.003950         0.345926
 H        -2.630489        -0.234420        -0.346568
 H        -2.391475         0.036490         1.441008
 H        -2.580996         1.963320        -1.788071
 H        -1.678541         3.409784        -1.363073
 H        -0.788031         0.520729        -1.905578
 H         0.247934         1.921336        -1.582071
 H        -1.190977         3.462276         2.679614
 H        -1.778678         1.808543         3.052822
 H        -0.131772         2.951025         0.684512
