19
Iteration:  3069charge 0 multiplicity 1
 O         0.230560        -0.254450         0.385216
 C        -0.572199         0.808014         0.147016
 C        -2.137513         0.565408         0.303559
 C        -2.067607         2.185878         0.300335
 C        -1.833894         2.485111        -1.178816
 C        -0.629109         1.430370        -1.321095
 O        -2.820173         2.654714         1.440159
 C        -1.665842         2.338680         2.263965
 C        -0.744306         2.107156         1.031531
 H        -0.332927        -1.020767         0.529974
 H        -2.738968         0.081398        -0.488987
 H        -2.317315         0.078488         1.296781
 H        -2.715198         1.998452        -1.681375
 H        -1.644513         3.554317        -1.468107
 H        -0.804079         0.630906        -2.035674
 H         0.435960         1.810104        -1.548143
 H        -1.387537         2.977950         3.124935
 H        -2.004737         1.334591         2.678580
 H         0.171987         2.756597         0.967645
