19
Iteration:  3888
 O         0.365791        -0.303664         0.409864
 C        -0.672605         0.753421         0.178236
 C        -2.202784         0.513972         0.226509
 C        -2.137527         2.108412         0.300483
 C        -1.772125         2.540860        -1.118820
 C        -0.583018         1.472821        -1.277408
 O        -2.754167         2.897213         1.397839
 C        -1.800298         2.208735         2.308830
 C        -0.890193         1.963064         1.002099
 H         1.116521        -0.306539        -0.207904
 H        -2.872987        -0.024976        -0.389912
 H        -2.313087         0.020189         1.214142
 H        -2.440088         2.419482        -2.004129
 H        -1.361721         3.462048        -1.186728
 H        -0.682511         0.691835        -2.091107
 H         0.372763         2.028961        -1.322166
 H        -1.057725         2.928058         2.857990
 H        -2.253710         1.376175         2.844872
 H        -0.176391         2.820557         1.066045
