19
Iteration:  4345
 O         0.203925        -0.268999         0.385072
 C        -0.628976         0.740806         0.120834
 C        -2.283317         0.659517         0.246574
 C        -2.082318         2.221960         0.249432
 C        -1.734343         2.490998        -1.145476
 C        -0.558066         1.425529        -1.213585
 O        -2.847750         2.628927         1.447271
 C        -1.696665         2.231074         2.275568
 C        -0.698184         2.028622         0.988895
 H         0.652822         0.152203         1.152176
 H        -2.773714         0.305501        -0.678640
 H        -2.721938         0.209884         1.131040
 H        -2.531791         2.339666        -1.898232
 H        -1.435875         3.468057        -1.331355
 H        -0.701643         0.826325        -2.208564
 H         0.465399         1.826744        -1.343361
 H        -1.321331         3.047489         2.994107
 H        -1.841261         1.294750         2.798757
 H         0.106666         2.826794         0.938100
