19
Iteration:  1130charge 0 multiplicity 1
 O         0.342020        -0.289126         0.317321
 C        -0.600802         0.731917         0.230899
 C        -2.123314         0.599540         0.275974
 C        -2.104888         2.093203         0.331460
 C        -1.886378         2.352237        -1.176242
 C        -0.583535         1.383585        -1.264042
 O        -2.797371         2.822308         1.334379
 C        -1.726433         2.372062         2.300946
 C        -0.823839         2.127801         1.022208
 H         0.401223        -0.530701         1.276928
 H        -2.704330         0.068301        -0.449869
 H        -2.553003         0.287580         1.219136
 H        -2.712109         1.937965        -1.712129
 H        -1.667442         3.444005        -1.355678
 H        -0.693042         0.661667        -1.986501
 H         0.401462         1.789111        -1.672291
 H        -1.422127         3.174423         2.962511
 H        -2.106817         1.429777         2.830070
 H        -0.044381         2.931495         0.938429
