19
Iteration:  3580
 O         0.096353        -0.392979         0.263934
 C        -0.578120         0.818307         0.157428
 C        -2.115767         0.531339         0.310798
 C        -2.147772         2.027774         0.281016
 C        -1.774726         2.450607        -1.087388
 C        -0.496002         1.630922        -1.243685
 O        -2.845138         2.726836         1.351337
 C        -1.748287         2.328113         2.272012
 C        -0.729754         2.055181         1.091640
 H         1.061536        -0.293672         0.393514
 H        -2.678914         0.044175        -0.444373
 H        -2.424063         0.152475         1.276450
 H        -2.474393         2.250945        -1.884291
 H        -1.559246         3.558705        -1.131180
 H        -0.388558         0.915063        -1.963974
 H         0.517147         2.114295        -1.121791
 H        -1.594305         3.129772         2.935737
 H        -1.966896         1.458262         2.908624
 H        -0.018502         2.860055         0.937801
