19
Iteration:    50charge 0 multiplicity 1
 O         0.344565        -0.389790         0.322507
 C        -0.603910         0.700622         0.097193
 C        -2.109267         0.492748         0.297993
 C        -2.188924         2.048488         0.383134
 C        -1.891480         2.352749        -1.065722
 C        -0.601199         1.393409        -1.280104
 O        -2.914205         2.681056         1.375729
 C        -1.607783         2.735774         2.301518
 C        -0.767385         2.144666         0.985069
 H         0.461955        -0.437320         1.297695
 H        -2.550640         0.146790        -0.672237
 H        -2.234654        -0.229426         1.113410
 H        -2.739394         2.126943        -1.783667
 H        -1.657773         3.415372        -1.184371
 H        -0.787981         0.636116        -2.117117
 H         0.419650         1.857521        -1.419170
 H        -1.347298         3.786860         2.093481
 H        -1.797429         2.290158         3.318733
 H         0.002912         2.960737         0.690458
