19
Iteration:  4394charge 0 multiplicity 1
 O         0.296641        -0.296547         0.215480
 C        -0.652276         0.724961         0.111137
 C        -2.177299         0.466651         0.258901
 C        -2.169408         2.064549         0.345230
 C        -1.775394         2.420490        -1.021240
 C        -0.533684         1.543160        -1.257660
 O        -2.759373         2.927673         1.326765
 C        -1.804537         2.353998         2.246408
 C        -0.764315         1.951040         1.154846
 H         0.458820        -0.546908         1.132297
 H        -2.854145         0.081142        -0.490882
 H        -2.253836        -0.088933         1.238375
 H        -2.638302         2.422753        -1.650861
 H        -1.368881         3.460635        -1.226708
 H        -0.544442         0.863250        -2.023789
 H         0.520302         1.793329        -1.261609
 H        -1.592377         3.062652         3.039565
 H        -2.242669         1.419906         2.730596
 H        -0.137525         2.785681         0.913778
