19
Iteration:  1195
 O         0.370641        -0.279512         0.381980
 C        -0.604531         0.695657         0.193659
 C        -2.091092         0.457661         0.222323
 C        -2.146002         2.075381         0.322995
 C        -1.862804         2.420467        -1.094311
 C        -0.689749         1.388383        -1.249943
 O        -2.901146         2.863405         1.313428
 C        -1.639972         2.483365         2.283230
 C        -0.743870         2.065492         1.029693
 H         0.207600        -1.148625         0.736843
 H        -2.734526         0.100991        -0.554515
 H        -2.520134        -0.009459         1.100968
 H        -2.610061         2.336577        -1.847726
 H        -1.435058         3.465689        -1.105270
 H        -0.771880         0.645888        -1.970275
 H         0.312233         1.946956        -1.428008
 H        -1.495900         3.494604         2.725574
 H        -1.838393         1.689606         3.116764
 H         0.130418         2.747490         0.744002
