19
Iteration:  2883charge 0 multiplicity 1
 O         0.287327        -0.318251         0.225002
 C        -0.581544         0.788023         0.157165
 C        -2.091992         0.515873         0.416366
 C        -2.091800         2.072974         0.287043
 C        -1.804623         2.417815        -1.088978
 C        -0.661226         1.347858        -1.358320
 O        -2.782921         2.841673         1.373597
 C        -1.792627         2.458165         2.348003
 C        -0.754439         2.041357         1.000694
 H         0.355901        -0.568678         1.161436
 H        -2.746919        -0.096593        -0.297369
 H        -2.329259         0.272561         1.374872
 H        -2.768102         2.341465        -1.642179
 H        -1.498498         3.488319        -1.220406
 H        -0.709608         0.518731        -2.051207
 H         0.273073         1.936366        -1.653084
 H        -1.479908         3.128078         3.122808
 H        -2.221589         1.640917         2.891174
 H        -0.182168         2.905181         0.721631
