19
Iteration:  1848
 O         0.283330        -0.309679         0.316269
 C        -0.641371         0.752887         0.219708
 C        -2.224266         0.477655         0.435582
 C        -2.187742         2.075542         0.328177
 C        -1.887643         2.344539        -1.163177
 C        -0.605422         1.463765        -1.269999
 O        -2.684624         2.932244         1.301014
 C        -1.709741         2.389806         2.192369
 C        -0.733708         1.981421         1.046985
 H         1.066700         0.030815         0.749797
 H        -2.841116        -0.029772        -0.364234
 H        -2.407766         0.163067         1.434304
 H        -2.660330         1.941763        -1.800411
 H        -1.652856         3.475053        -1.337512
 H        -0.853553         0.635339        -1.928945
 H         0.409217         1.949780        -1.390090
 H        -1.295559         3.312170         2.641872
 H        -2.031137         1.570152         2.844821
 H        -0.015592         2.808537         0.931762
