19
Iteration:  2373charge 0 multiplicity 1
 O         0.280450        -0.342096         0.272508
 C        -0.627103         0.756132         0.144792
 C        -2.145587         0.477838         0.413051
 C        -2.096117         2.109417         0.350543
 C        -1.833554         2.453703        -1.173804
 C        -0.710467         1.298540        -1.306442
 O        -2.761793         2.871524         1.386782
 C        -1.696016         2.454159         2.212332
 C        -0.783639         2.075152         1.099625
 H         1.219579        -0.118955         0.322372
 H        -2.705655        -0.007879        -0.313367
 H        -2.054827         0.068016         1.421280
 H        -2.648411         2.167822        -1.851193
 H        -1.675286         3.499035        -1.352852
 H        -1.134670         0.433125        -1.780024
 H         0.320977         1.643368        -1.574445
 H        -1.440209         3.238460         3.000924
 H        -1.849893         1.601050         2.882158
 H        -0.203680         3.151034         0.950139
