19
Iteration:  3575
 O         0.058646        -0.373042         0.249971
 C        -0.567465         0.807282         0.186930
 C        -2.099948         0.534581         0.330498
 C        -2.134668         2.041226         0.303082
 C        -1.754163         2.440961        -1.121790
 C        -0.443327         1.623135        -1.287768
 O        -2.859509         2.724149         1.342242
 C        -1.740222         2.293044         2.254659
 C        -0.761094         2.073857         1.144487
 H         1.027537        -0.339428         0.293654
 H        -2.736802         0.027815        -0.499246
 H        -2.336647         0.186633         1.384171
 H        -2.630655         2.290591        -1.817529
 H        -1.668612         3.518051        -0.969818
 H        -0.356748         0.758729        -2.091384
 H         0.480752         2.195446        -1.229449
 H        -1.532296         3.205034         2.928588
 H        -1.906888         1.461301         2.998409
 H        -0.106158         2.947610         0.938169
