19
Iteration:  4542
 O         0.368707        -0.321256         0.169780
 C        -0.598744         0.752276         0.193758
 C        -2.106115         0.469309         0.308512
 C        -2.087787         2.068953         0.308204
 C        -1.754046         2.604901        -1.091802
 C        -0.635137         1.457122        -1.173561
 O        -2.804607         2.833103         1.289729
 C        -1.873374         2.317994         2.269118
 C        -0.795001         1.982857         1.126962
 H         0.150024        -0.950712         0.891548
 H        -2.653303        -0.078697        -0.464886
 H        -2.448170         0.336199         1.309383
 H        -2.582355         2.615372        -1.875034
 H        -1.256856         3.475911        -0.801025
 H        -1.044491         0.773631        -1.981328
 H         0.330523         1.791986        -1.402518
 H        -1.564038         3.186472         2.967316
 H        -2.227458         1.610994         2.973618
 H        -0.101117         2.853714         0.862855
