19
Iteration:  4868charge 0 multiplicity 1
 O         0.206172        -0.330745         0.398802
 C        -0.641679         0.773014         0.150353
 C        -2.152327         0.580653         0.182107
 C        -2.125115         2.098769         0.273296
 C        -1.678691         2.559471        -1.222218
 C        -0.457838         1.519973        -1.236869
 O        -2.933474         2.739436         1.459706
 C        -1.723329         2.188652         2.323961
 C        -0.814333         2.036641         1.021542
 H         0.953682         0.109754         0.863481
 H        -2.653245         0.251825        -0.781367
 H        -2.662723         0.145877         1.091480
 H        -2.369339         2.336792        -2.073610
 H        -1.456354         3.639294        -1.133481
 H        -0.602834         0.606034        -1.994721
 H         0.506077         1.973498        -1.444462
 H        -1.441030         2.816706         3.169611
 H        -1.976016         1.241630         2.857706
 H        -0.131067         2.894480         0.942362
