19
Iteration:  4538
 O         0.380061        -0.319053         0.146352
 C        -0.597837         0.755396         0.217009
 C        -2.106734         0.476050         0.309693
 C        -2.098816         2.072932         0.315637
 C        -1.710648         2.585973        -1.118066
 C        -0.664641         1.440095        -1.199086
 O        -2.826234         2.840398         1.312671
 C        -1.859059         2.348421         2.275503
 C        -0.817536         1.971327         1.130282
 H         0.179687        -0.827098         0.957671
 H        -2.553640        -0.084983        -0.554883
 H        -2.516826         0.312693         1.312287
 H        -2.628100         2.589274        -1.706887
 H        -1.172319         3.645660        -0.990988
 H        -0.920637         0.716708        -1.974377
 H         0.372137         1.813355        -1.396523
 H        -1.491242         3.031043         3.010706
 H        -2.346953         1.560502         2.991107
 H        -0.095868         2.745291         0.961273
