19
Iteration:  1930charge 0 multiplicity 1
 O         0.239138        -0.319780         0.478479
 C        -0.641709         0.697623         0.153979
 C        -2.170444         0.598243         0.372681
 C        -2.154297         2.103704         0.245085
 C        -1.811776         2.497735        -1.220177
 C        -0.650540         1.430682        -1.303192
 O        -2.901804         2.652571         1.505200
 C        -1.536780         2.508993         2.101871
 C        -0.692721         2.018464         0.931863
 H         0.437062        -0.267366         1.449619
 H        -2.766814        -0.095264        -0.310867
 H        -2.483079         0.418733         1.435017
 H        -2.658004         2.243821        -1.905608
 H        -1.526635         3.559319        -1.296328
 H        -0.971174         0.723556        -2.093418
 H         0.389494         1.754698        -1.524348
 H        -1.145086         3.341415         2.695630
 H        -1.540933         1.711658         2.948307
 H         0.180335         2.659092         0.615249
