19
Iteration:  2429
 O         0.274649        -0.275782         0.391389
 C        -0.686046         0.739368         0.133242
 C        -2.171849         0.478664         0.370218
 C        -2.215721         2.056844         0.293650
 C        -1.911520         2.412034        -1.148235
 C        -0.653703         1.487391        -1.295971
 O        -2.736300         2.829481         1.393631
 C        -1.475995         2.441169         2.280933
 C        -0.788753         1.969715         0.912240
 H         0.346644        -0.632710         1.295972
 H        -2.555967        -0.222207        -0.327688
 H        -2.382572         0.090977         1.334395
 H        -2.593871         2.017502        -1.888321
 H        -1.748508         3.462747        -1.400472
 H        -0.671292         0.829907        -2.148084
 H         0.298509         2.084030        -1.449157
 H        -1.090533         3.423090         2.727592
 H        -1.869444         1.810406         3.061528
 H        -0.085311         2.899806         0.815413
