19
Iteration:  1032
 O         0.265574        -0.374355         0.391537
 C        -0.571897         0.820953         0.234969
 C        -2.119821         0.536211         0.348511
 C        -2.131738         2.062662         0.244778
 C        -1.930015         2.297243        -1.174988
 C        -0.566973         1.567861        -1.265963
 O        -2.822783         2.704474         1.356665
 C        -1.688719         2.447913         2.207263
 C        -0.679861         2.139444         1.037724
 H        -0.354783        -0.996808         0.823683
 H        -2.697696         0.091504        -0.482913
 H        -2.437429         0.187665         1.328860
 H        -2.643444         1.923800        -1.918818
 H        -1.742399         3.429375        -1.309054
 H        -0.507601         0.878198        -2.087625
 H         0.281701         2.355750        -1.377085
 H        -1.403111         3.382730         2.627604
 H        -1.979523         1.667847         2.946515
 H         0.092009         2.971313         1.027074
