19
Iteration:   819charge 0 multiplicity 1
 O         0.411435        -0.062366         0.558844
 C        -0.688767         0.696479         0.134732
 C        -2.195649         0.546461         0.387976
 C        -2.041961         2.185445         0.289427
 C        -1.885294         2.401185        -1.222424
 C        -0.752183         1.264078        -1.352935
 O        -2.788066         2.786266         1.344082
 C        -1.638693         2.363947         2.274501
 C        -0.742846         2.044596         0.966755
 H         0.312217        -1.016137         0.456727
 H        -2.820960         0.019351        -0.361987
 H        -2.350194         0.070981         1.372159
 H        -2.831105         2.024414        -1.707618
 H        -1.659134         3.400956        -1.609187
 H        -0.814359         0.463080        -2.131463
 H         0.182309         1.722152        -1.587740
 H        -1.379060         3.239536         2.911822
 H        -2.055087         1.465945         2.782115
 H         0.211615         2.660571         0.835623
