19
Iteration:  1707
 O         0.315011        -0.350803         0.421888
 C        -0.596629         0.789876         0.197576
 C        -2.146069         0.514612         0.390959
 C        -2.175084         2.095218         0.266384
 C        -1.886796         2.431936        -1.204085
 C        -0.643183         1.415217        -1.225729
 O        -2.825182         2.834025         1.322490
 C        -1.645207         2.434110         2.220627
 C        -0.753926         2.037225         1.065897
 H         0.553088        -0.689198        -0.440219
 H        -2.760619        -0.107357        -0.307322
 H        -2.230254         0.173099         1.419732
 H        -2.603299         2.235641        -1.964087
 H        -1.508528         3.523351        -1.337860
 H        -0.813549         0.617193        -1.935194
 H         0.385138         1.847286        -1.395897
 H        -1.194726         3.224973         2.954314
 H        -2.170646         1.706172         2.799309
 H         0.085654         2.766124         0.900794
