19
Iteration:  4008charge 0 multiplicity 1
 O         0.433239        -0.299769         0.247065
 C        -0.636364         0.717874         0.166369
 C        -2.284258         0.687104         0.256172
 C        -2.123819         2.179048         0.340247
 C        -1.726185         2.435335        -1.124252
 C        -0.556976         1.497942        -1.239905
 O        -2.824922         2.816732         1.375791
 C        -1.787577         2.190551         2.281477
 C        -0.846028         1.888711         1.089786
 H         0.945744        -0.041486         1.038062
 H        -2.934022         0.146878        -0.426012
 H        -2.611508         0.225173         1.250543
 H        -2.617967         2.221598        -1.837148
 H        -1.406339         3.455788        -1.300693
 H        -0.649840         0.806941        -2.066122
 H         0.305843         2.075085        -1.306844
 H        -1.350519         3.115183         2.849257
 H        -2.332430         1.500454         2.876934
 H        -0.125333         2.705435         0.850262
