19
Iteration:  3970charge 0 multiplicity 1
 O         0.245786        -0.331691         0.250272
 C        -0.601074         0.774010         0.190497
 C        -2.138612         0.505381         0.213816
 C        -2.178476         2.042200         0.304495
 C        -1.753538         2.536756        -1.032839
 C        -0.561776         1.520535        -1.172476
 O        -2.830054         2.715806         1.347093
 C        -1.737826         2.359742         2.253060
 C        -0.793218         2.063611         1.042951
 H         0.113970        -0.781240         1.107059
 H        -2.413792         0.034057        -0.753713
 H        -2.433484         0.079759         1.145205
 H        -2.429247         2.526441        -1.845829
 H        -1.221204         3.555809        -1.008601
 H        -0.659823         0.709299        -1.926376
 H         0.390350         2.089980        -1.411133
 H        -1.363186         3.182400         2.767271
 H        -1.856267         1.518055         2.966844
 H        -0.190465         2.954455         0.939307
