19
Iteration:  1582
 O         0.458364        -0.335019         0.391749
 C        -0.650384         0.657220         0.235565
 C        -2.257428         0.573708         0.356581
 C        -2.168281         2.119154         0.307146
 C        -1.894336         2.419333        -1.162998
 C        -0.595856         1.436495        -1.227522
 O        -2.813668         2.793932         1.301554
 C        -1.692312         2.488069         2.246220
 C        -0.725413         2.007977         1.049947
 H         0.625015        -0.555725        -0.524989
 H        -2.859005         0.174397        -0.501806
 H        -2.676388         0.271035         1.302855
 H        -2.610188         1.924940        -1.959175
 H        -1.819369         3.461572        -1.390912
 H        -0.882207         0.739833        -2.074815
 H         0.389585         1.819209        -1.352762
 H        -1.221161         3.312208         2.693669
 H        -2.044155         1.926346         3.176039
 H         0.015767         2.802850         1.024299
