19
Iteration:  1135charge 0 multiplicity 1
 O         0.311333        -0.301027         0.300053
 C        -0.582912         0.735669         0.247451
 C        -2.143002         0.569021         0.302384
 C        -2.092386         2.112439         0.313085
 C        -1.858364         2.346945        -1.174245
 C        -0.559287         1.407438        -1.249208
 O        -2.829860         2.809528         1.393329
 C        -1.763485         2.367312         2.262302
 C        -0.738028         2.151196         0.976215
 H         0.282438        -0.646516         1.199424
 H        -2.688523        -0.037400        -0.474937
 H        -2.623025         0.382224         1.303289
 H        -2.726742         1.892617        -1.731800
 H        -1.738920         3.395084        -1.462748
 H        -0.684975         0.576877        -2.080379
 H         0.398599         1.886186        -1.434452
 H        -1.529626         3.239293         2.919632
 H        -1.967274         1.497805         2.852673
 H        -0.151039         3.045603         0.813288
