19
Iteration:  1885charge 0 multiplicity 1
 O         0.319366        -0.326451         0.311483
 C        -0.663137         0.750353         0.205950
 C        -2.180020         0.476374         0.375886
 C        -2.091531         2.160482         0.303877
 C        -1.876654         2.354607        -1.148193
 C        -0.670042         1.366869        -1.251148
 O        -2.769127         2.977978         1.353224
 C        -1.733934         2.354536         2.183922
 C        -0.693256         2.026524         1.054095
 H         1.000458         0.001617         0.944472
 H        -2.660912        -0.024133        -0.454479
 H        -2.432603         0.029728         1.381671
 H        -2.738374         1.993505        -1.791332
 H        -1.647068         3.345747        -1.385199
 H        -0.893474         0.512125        -1.933477
 H         0.208626         1.852390        -1.635730
 H        -1.303724         3.178379         2.737433
 H        -2.133427         1.740237         2.977691
 H         0.118845         2.718373         0.965118
