19
Iteration:   498
 O         0.391213        -0.295503         0.423063
 C        -0.603322         0.752916         0.140078
 C        -2.176641         0.476840         0.397533
 C        -2.091588         2.092261         0.340153
 C        -1.959897         2.337612        -1.106215
 C        -0.780157         1.237888        -1.358814
 O        -2.769036         2.835874         1.351693
 C        -1.608302         2.614581         2.226112
 C        -0.736870         2.048131         0.937388
 H         0.880011        -0.051424         1.240900
 H        -2.701821         0.046542        -0.536064
 H        -2.591743         0.203355         1.405235
 H        -2.933200         2.062465        -1.610851
 H        -1.579813         3.324031        -1.406851
 H        -1.055448         0.360138        -1.976614
 H         0.096182         1.696458        -1.745097
 H        -1.191588         3.530275         2.569828
 H        -1.841924         2.130869         3.174237
 H        -0.129845         2.969772         0.710001
