19
Iteration:  4639
 O         0.319160        -0.254630         0.520601
 C        -0.638336         0.695872         0.166139
 C        -2.173611         0.465827         0.286492
 C        -2.120270         2.080050         0.274777
 C        -1.742402         2.654379        -1.134610
 C        -0.610401         1.547734        -1.343162
 O        -2.821818         2.839339         1.361950
 C        -1.744997         2.192245         2.241116
 C        -0.775461         1.966510         1.055027
 H         0.564454        -0.783368        -0.284692
 H        -2.733873        -0.253178        -0.388791
 H        -2.404377         0.096672         1.284289
 H        -2.462517         2.405963        -1.981671
 H        -1.332414         3.684955        -1.011115
 H        -1.013483         0.762156        -2.080916
 H         0.325089         1.909242        -1.678820
 H        -1.429025         3.035013         2.966303
 H        -2.167148         1.285533         2.820523
 H        -0.217206         2.920594         0.831489
