19
Iteration:    38charge 0 multiplicity 1
 O         0.282177        -0.324163         0.286544
 C        -0.666646         0.724089         0.171842
 C        -2.189424         0.516543         0.352474
 C        -2.127369         2.022748         0.353001
 C        -1.845172         2.370809        -1.068617
 C        -0.539374         1.442242        -1.206338
 O        -2.872254         2.561886         1.436545
 C        -1.621288         2.726864         2.089771
 C        -0.773034         2.083703         0.964152
 H         0.634865        -0.320481         1.196441
 H        -2.832610        -0.007455        -0.393400
 H        -2.477466         0.122006         1.361763
 H        -2.559353         2.023366        -1.833375
 H        -1.587183         3.433666        -1.213791
 H        -0.597414         0.772562        -2.079479
 H         0.445346         2.043503        -1.272601
 H        -1.399361         3.801446         2.286268
 H        -1.540549         2.436246         3.177718
 H        -0.083575         2.877838         0.461450
