19
Iteration:  1233
 O         0.389687        -0.153768         0.320023
 C        -0.735726         0.683075         0.180034
 C        -2.214533         0.585076         0.434722
 C        -2.105545         2.122835         0.266980
 C        -1.764591         2.401890        -1.205840
 C        -0.611666         1.311342        -1.272416
 O        -2.854460         2.854559         1.362875
 C        -1.737358         2.258389         2.284321
 C        -0.696180         2.055325         0.969197
 H         0.380552        -0.223547         1.301906
 H        -2.827635         0.014318        -0.309151
 H        -2.358783         0.345190         1.501873
 H        -2.589457         2.354467        -1.997554
 H        -1.315785         3.371262        -1.299557
 H        -0.866297         0.549549        -2.100249
 H         0.209522         1.909972        -1.463649
 H        -1.484653         2.967916         3.079629
 H        -1.948280         1.344310         2.795511
 H         0.045344         2.788276         0.811688
