19
Iteration:  1853
 O         0.318430        -0.320543         0.315059
 C        -0.672770         0.704064         0.212233
 C        -2.238361         0.498599         0.419286
 C        -2.154537         2.038268         0.302958
 C        -1.889387         2.353857        -1.171179
 C        -0.620550         1.496760        -1.257517
 O        -2.665984         2.957354         1.270884
 C        -1.737847         2.377243         2.247532
 C        -0.710021         2.004740         1.055884
 H         1.071372         0.096141         0.787802
 H        -2.864369        -0.180285        -0.147313
 H        -2.436342         0.300217         1.508746
 H        -2.700028         1.991166        -1.854150
 H        -1.859824         3.396451        -1.270243
 H        -0.804037         0.653937        -1.948782
 H         0.314389         1.941357        -1.549233
 H        -1.333407         3.221072         2.791438
 H        -2.184215         1.597818         2.894367
 H         0.061559         2.756866         0.833210
