19
Iteration:  3865charge 0 multiplicity 1
 O         0.185547        -0.277986         0.293851
 C        -0.692077         0.762320         0.170950
 C        -2.133354         0.496717         0.338482
 C        -2.076784         2.104316         0.311334
 C        -1.700344         2.535953        -1.123649
 C        -0.595644         1.460291        -1.253142
 O        -2.833709         2.744652         1.342188
 C        -1.787274         2.319080         2.259573
 C        -0.700714         1.994982         1.086972
 H         1.109718         0.011272         0.182587
 H        -2.703931        -0.044366        -0.409275
 H        -2.537621         0.125866         1.288636
 H        -2.458818         2.461486        -1.912024
 H        -1.402021         3.536959        -1.006712
 H        -0.855639         0.845883        -2.119185
 H         0.413901         1.876217        -1.313092
 H        -1.572983         3.163196         3.013195
 H        -2.032959         1.341043         2.635430
 H         0.058049         2.773218         1.113639
