19
Iteration:  1319
 O         0.288386        -0.273507         0.373646
 C        -0.660754         0.713129         0.223854
 C        -2.203210         0.481093         0.401219
 C        -2.142831         2.097749         0.276367
 C        -1.746339         2.493656        -1.248067
 C        -0.588013         1.347893        -1.229324
 O        -2.852986         2.717199         1.343048
 C        -1.696489         2.424830         2.270210
 C        -0.770968         2.168405         1.075465
 H         0.650845        -0.384622        -0.511439
 H        -2.702077        -0.093635        -0.387628
 H        -2.476284         0.220832         1.451473
 H        -2.632513         2.309524        -1.927675
 H        -1.302505         3.456251        -1.309576
 H        -0.491956         0.686214        -2.165162
 H         0.286897         1.965820        -1.267550
 H        -1.421064         3.355679         2.749552
 H        -1.799270         1.523708         2.996830
 H         0.037897         2.783014         0.811916
