19
Iteration:  2852charge 0 multiplicity 1
 O         0.415023        -0.194338         0.334308
 C        -0.643919         0.732606         0.224844
 C        -2.139722         0.517820         0.363840
 C        -2.085809         2.182752         0.281486
 C        -1.801625         2.477711        -1.105278
 C        -0.765882         1.301632        -1.266771
 O        -2.845235         2.842133         1.317248
 C        -1.650752         2.348216         2.256719
 C        -0.745634         1.992244         1.024570
 H        -0.016514        -1.077031         0.337147
 H        -2.701328         0.021895        -0.489148
 H        -2.495601         0.305990         1.331361
 H        -2.792635         2.299716        -1.663190
 H        -1.448286         3.512931        -1.337387
 H        -1.110792         0.499593        -1.856969
 H         0.226558         1.693936        -1.691524
 H        -1.239206         3.100046         3.012532
 H        -2.078453         1.535952         2.810200
 H        -0.032171         2.760652         0.906258
