19
Iteration:   551
 O         0.227399        -0.317939         0.500647
 C        -0.651219         0.780580         0.094975
 C        -2.093397         0.541267         0.419767
 C        -2.192582         2.086617         0.293583
 C        -1.965029         2.247799        -1.190801
 C        -0.614798         1.311982        -1.293876
 O        -2.791860         2.872069         1.469866
 C        -1.494487         2.493665         2.153305
 C        -0.769686         2.162210         0.885217
 H         1.008149         0.054692         0.950372
 H        -2.667784        -0.144128        -0.298466
 H        -2.131836         0.080747         1.428031
 H        -2.832786         1.852386        -1.878301
 H        -1.663004         3.218518        -1.516006
 H        -1.062258         0.487984        -1.893503
 H         0.302471         1.785478        -1.671345
 H        -1.237409         3.330284         2.893322
 H        -1.624318         1.506187         2.617106
 H        -0.270058         3.120595         0.637009
