19
Iteration:  2802
 O         0.186882        -0.344704         0.536221
 C        -0.669599         0.759340         0.041635
 C        -2.108226         0.502634         0.313177
 C        -2.156391         2.158809         0.287957
 C        -1.960196         2.371637        -1.175243
 C        -0.561771         1.438503        -1.288098
 O        -2.739863         2.825393         1.499517
 C        -1.627527         2.379588         2.219724
 C        -0.779280         2.060306         0.941224
 H         0.985898        -0.294186        -0.028579
 H        -2.488051        -0.000452        -0.526671
 H        -2.253536        -0.006254         1.352062
 H        -2.629522         2.005380        -1.917272
 H        -1.700242         3.413100        -1.291210
 H        -0.696670         0.713076        -2.175105
 H         0.323935         2.029131        -1.340243
 H        -1.178605         3.329301         2.495855
 H        -1.699727         1.745051         3.146487
 H        -0.049883         2.967912         0.777271
