19
Iteration:  1150
 O         0.266926        -0.320001         0.286072
 C        -0.678085         0.818919         0.177764
 C        -2.127578         0.532425         0.473168
 C        -2.137903         2.140398         0.259341
 C        -1.821204         2.351236        -1.271518
 C        -0.557701         1.456408        -1.155106
 O        -2.903454         2.706358         1.397111
 C        -1.640532         2.440348         2.181234
 C        -0.728919         2.142725         1.048239
 H        -0.104060        -0.904337         0.970131
 H        -2.578231         0.012659        -0.364456
 H        -2.307339        -0.049459         1.352642
 H        -2.545861         1.929448        -1.961548
 H        -1.470026         3.344474        -1.530704
 H        -0.385772         0.773620        -1.959547
 H         0.339137         2.134306        -1.237982
 H        -1.307777         3.295937         2.890372
 H        -1.876531         1.509631         2.751775
 H         0.137793         2.831199         0.736479
