19
Iteration:     3charge 0 multiplicity 1
 O         0.366174        -0.203898         0.330731
 C        -0.650063         0.765757         0.211522
 C        -2.131062         0.499391         0.407010
 C        -2.169674         2.082992         0.308869
 C        -1.902588         2.356547        -1.186835
 C        -0.660810         1.351990        -1.250205
 O        -2.794911         2.762054         1.350481
 C        -1.646904         2.461494         2.219746
 C        -0.761739         2.084986         0.995987
 H         0.346404        -0.563126         1.238225
 H        -2.603333        -0.086907        -0.385572
 H        -2.416412         0.167064         1.428597
 H        -2.632409         2.078515        -1.927934
 H        -1.600368         3.401174        -1.389925
 H        -0.801028         0.605516        -1.984220
 H         0.299918         1.919379        -1.497092
 H        -1.379355         3.410406         2.635164
 H        -1.867225         1.661519         2.919081
 H         0.008412         2.885121         0.725851
