19
Iteration:  4038charge 0 multiplicity 1
 O         0.234576        -0.263365         0.337374
 C        -0.701805         0.814423         0.226279
 C        -2.126937         0.392980         0.209547
 C        -2.112592         2.184761         0.321779
 C        -1.740279         2.511510        -1.154223
 C        -0.626726         1.517325        -1.255048
 O        -2.744396         2.807588         1.377134
 C        -1.720649         2.165580         2.249634
 C        -0.793062         2.045227         1.081954
 H         0.595246        -0.283016         1.241226
 H        -2.343033        -0.106805        -0.749381
 H        -2.460182        -0.051085         1.177981
 H        -2.583507         2.367791        -1.842697
 H        -1.348837         3.588449        -1.231815
 H        -0.798185         0.783352        -2.010668
 H         0.330986         1.998429        -1.441789
 H        -1.525118         2.884077         3.030045
 H        -2.232896         1.309280         2.619793
 H        -0.193827         2.867936         0.752856
