19
Iteration:   367
 O         0.408412        -0.092766         0.521251
 C        -0.652045         0.710269         0.162026
 C        -2.205273         0.652713         0.432722
 C        -2.104408         2.123641         0.312868
 C        -1.938419         2.302890        -1.230539
 C        -0.831005         1.137088        -1.328328
 O        -2.849700         2.810324         1.365098
 C        -1.482482         2.479751         2.313897
 C        -0.681597         2.034002         0.916039
 H         0.808481        -0.556744        -0.237415
 H        -2.681391         0.207022        -0.510391
 H        -2.435908         0.241179         1.423300
 H        -2.838624         1.992075        -1.835944
 H        -1.588736         3.277647        -1.474849
 H        -1.177953         0.209330        -1.886528
 H        -0.014531         1.625494        -1.809211
 H        -1.164157         3.407724         2.760385
 H        -1.781497         1.635216         2.924323
 H         0.099150         2.849440         0.670506
