19
Iteration:  1261charge 0 multiplicity 1
 O         0.276150        -0.308645         0.407799
 C        -0.646999         0.750885         0.247605
 C        -2.155929         0.532181         0.241506
 C        -2.121656         2.075140         0.264009
 C        -1.859265         2.395603        -1.200210
 C        -0.612930         1.431827        -1.226234
 O        -2.764650         2.811372         1.395483
 C        -1.723060         2.375840         2.238607
 C        -0.747979         2.066040         1.019000
 H         1.035865         0.062734         0.924380
 H        -2.779256         0.105527        -0.567106
 H        -2.473802         0.064320         1.165379
 H        -2.604935         2.074549        -1.888875
 H        -1.660760         3.475116        -1.450592
 H        -0.906876         0.683617        -1.890699
 H         0.230970         2.055087        -1.701075
 H        -1.416957         3.214637         2.843161
 H        -1.828356         1.473279         2.995654
 H         0.051719         2.859354         0.845822
