19
Iteration:   746
 O         0.329176        -0.333542         0.271370
 C        -0.622736         0.720111         0.178613
 C        -2.110120         0.570781         0.473597
 C        -2.113519         2.086726         0.361286
 C        -1.948474         2.348070        -1.192942
 C        -0.676856         1.311507        -1.216703
 O        -2.839783         2.767295         1.265640
 C        -1.663387         2.597392         2.225785
 C        -0.712205         2.013693         1.063309
 H         1.073012        -0.017737         0.802179
 H        -2.828302         0.041535        -0.096801
 H        -2.248108         0.327536         1.537457
 H        -2.835676         2.320217        -1.929913
 H        -1.571459         3.328018        -1.221260
 H        -0.757200         0.544562        -2.042070
 H         0.317246         1.862000        -1.459023
 H        -1.472159         3.695847         2.363893
 H        -2.030271         2.072180         3.049129
 H         0.106925         2.741480         0.821029
