19
Iteration:  3338
 O         0.162512        -0.289837         0.405614
 C        -0.720009         0.748223         0.204782
 C        -2.132905         0.517442         0.215713
 C        -2.091258         2.157700         0.307285
 C        -1.771733         2.568027        -1.124117
 C        -0.575912         1.479344        -1.212907
 O        -2.807337         2.739307         1.382494
 C        -1.678173         2.206191         2.262876
 C        -0.767375         2.008481         0.994598
 H         1.016513         0.109953         0.143714
 H        -2.618482         0.020468        -0.641014
 H        -2.418804        -0.145332         1.061603
 H        -2.458733         2.566809        -1.999349
 H        -1.508071         3.710500        -1.130548
 H        -0.553129         0.767830        -2.026205
 H         0.410576         2.003785        -1.178506
 H        -1.345533         3.061130         2.837209
 H        -1.932553         1.309134         2.815001
 H        -0.017261         2.819469         0.872981
