19
Iteration:   285
 O         0.339044        -0.280742         0.413609
 C        -0.629751         0.775364         0.220175
 C        -2.112802         0.487247         0.296662
 C        -2.177596         2.099304         0.252434
 C        -2.025490         2.308866        -1.226680
 C        -0.669977         1.253557        -1.269165
 O        -2.790972         2.725518         1.512426
 C        -1.546162         2.659371         2.252468
 C        -0.692117         2.207682         0.933367
 H        -0.241071        -1.074886         0.437277
 H        -2.510646        -0.162217        -0.475970
 H        -2.453223         0.044369         1.254036
 H        -2.818187         1.895830        -1.830198
 H        -1.826112         3.400538        -1.548376
 H        -0.775853         0.438266        -1.964707
 H         0.254522         1.839710        -1.547464
 H        -1.325639         3.702139         2.509864
 H        -1.505750         2.092601         3.222061
 H         0.103146         2.859008         0.760796
