19
Iteration:   534charge 0 multiplicity 1
 O         0.236910        -0.228911         0.505006
 C        -0.706639         0.802754         0.207447
 C        -2.223157         0.523823         0.478073
 C        -2.189488         2.055039         0.263701
 C        -1.935779         2.293036        -1.228821
 C        -0.692505         1.311601        -1.289448
 O        -2.706371         2.712635         1.422855
 C        -1.457412         2.447821         2.162254
 C        -0.715973         2.206690         0.814620
 H         0.942688         0.062233         1.101452
 H        -2.793612        -0.016201        -0.231155
 H        -2.664075         0.303519         1.466186
 H        -2.681837         2.024500        -1.860834
 H        -1.744435         3.408273        -1.495621
 H        -0.510947         0.589763        -2.064826
 H         0.200871         1.955595        -1.303909
 H        -1.100668         3.352712         2.590767
 H        -1.628129         1.654732         2.917949
 H        -0.041318         2.876895         0.281205
