19
Iteration:  3043charge 0 multiplicity 1
 O         0.298512        -0.309157         0.385223
 C        -0.588639         0.742405         0.168636
 C        -2.163841         0.471155         0.414238
 C        -2.166677         2.086606         0.306661
 C        -1.875949         2.486658        -1.094916
 C        -0.613482         1.551876        -1.279792
 O        -2.809376         2.799236         1.341686
 C        -1.634108         2.369232         2.205299
 C        -0.763954         1.968015         0.991898
 H        -0.007419        -1.057795        -0.146786
 H        -2.619427        -0.129628        -0.432194
 H        -2.388216         0.053177         1.370957
 H        -2.718405         2.420631        -1.742024
 H        -1.520079         3.539297        -1.194453
 H        -0.430612         0.989948        -2.220188
 H         0.223790         2.214440        -1.205335
 H        -1.206538         3.214142         2.786453
 H        -2.028676         1.654980         2.979096
 H        -0.030712         2.792699         0.770629
