19
Iteration:  3122
 O         0.328387        -0.209380         0.305957
 C        -0.715558         0.630343         0.076571
 C        -2.240603         0.431324         0.339006
 C        -2.074303         2.072620         0.338453
 C        -1.776597         2.513035        -1.077210
 C        -0.641702         1.493774        -1.340092
 O        -2.780968         2.873803         1.357503
 C        -1.727769         2.305455         2.277771
 C        -0.757511         1.952659         1.031807
 H         0.734669         0.067630         1.132675
 H        -2.919084        -0.147731        -0.378508
 H        -2.424117         0.063923         1.350110
 H        -2.572985         2.519514        -1.783645
 H        -1.323394         3.534845        -0.930453
 H        -0.602169         0.870829        -2.229734
 H         0.391400         1.843983        -1.057225
 H        -1.279797         3.201589         2.715256
 H        -2.204712         1.512906         2.976873
 H         0.066783         2.754601         0.961046
