19
Iteration:  3252charge 0 multiplicity 1
 O         0.401587        -0.282546         0.256618
 C        -0.640923         0.734715         0.145932
 C        -2.207972         0.533294         0.308664
 C        -2.079579         2.204021         0.264496
 C        -1.729849         2.549706        -1.156961
 C        -0.655275         1.387802        -1.296993
 O        -2.879538         2.833935         1.413013
 C        -1.764040         2.198595         2.300326
 C        -0.773036         2.034978         1.102811
 H         0.095039        -0.727910         1.064759
 H        -2.777712        -0.014675        -0.486877
 H        -2.455562         0.337210         1.390054
 H        -2.513887         2.427559        -1.913574
 H        -1.196670         3.586529        -1.176928
 H        -0.757982         0.619223        -2.049318
 H         0.348280         1.851112        -1.467103
 H        -1.434892         2.873929         3.069692
 H        -2.103725         1.378468         2.941925
 H         0.072968         2.778519         1.024034
