19
Iteration:  3591
 O         0.225308        -0.429204         0.304193
 C        -0.666947         0.732719         0.137135
 C        -2.146848         0.512646         0.236174
 C        -2.131334         2.115270         0.322181
 C        -1.811203         2.556640        -1.122449
 C        -0.543662         1.572272        -1.096612
 O        -2.819115         2.727053         1.363309
 C        -1.757301         2.358950         2.267987
 C        -0.734846         2.020367         1.021754
 H         1.085535        -0.047069         0.557418
 H        -2.523711         0.002782        -0.611662
 H        -2.382375         0.021659         1.160701
 H        -2.463420         2.158282        -1.871808
 H        -1.488064         3.603728        -1.330116
 H        -0.648951         1.099369        -1.989697
 H         0.336271         2.272708        -1.192772
 H        -1.425064         3.120101         2.913075
 H        -2.125229         1.464021         2.763493
 H         0.052419         2.748830         0.865300
