19
Iteration:  1245
 O         0.355924        -0.243215         0.357196
 C        -0.623335         0.772081         0.122326
 C        -2.222128         0.621651         0.406717
 C        -2.118122         2.196745         0.326864
 C        -1.812524         2.406949        -1.182393
 C        -0.614769         1.325808        -1.272242
 O        -2.863025         2.813185         1.332663
 C        -1.649346         2.258232         2.251777
 C        -0.804762         2.031900         1.010393
 H         0.795238        -0.069142         1.224102
 H        -2.651288        -0.087268        -0.365512
 H        -2.680380         0.232648         1.358413
 H        -2.759278         2.156747        -1.772959
 H        -1.471269         3.402932        -1.395794
 H        -0.563874         0.519042        -2.109273
 H         0.398182         1.643142        -1.307869
 H        -1.172869         3.042246         2.917702
 H        -2.140998         1.498465         2.708307
 H        -0.082680         2.830630         0.876053
