19
Iteration:  1397
 O         0.303069        -0.187216         0.516088
 C        -0.688559         0.804731         0.194928
 C        -2.203488         0.514777         0.268317
 C        -2.188852         2.094759         0.286816
 C        -1.855050         2.371400        -1.225044
 C        -0.538331         1.427644        -1.248449
 O        -2.803156         2.751700         1.405630
 C        -1.598590         2.341130         2.196263
 C        -0.743766         2.091667         1.002701
 H        -0.114709        -1.014486         0.258531
 H        -2.696218         0.096588        -0.655455
 H        -2.604919         0.042638         1.188104
 H        -2.619216         2.491843        -2.059661
 H        -1.499979         3.397304        -1.119798
 H        -0.616980         0.507691        -1.952928
 H         0.334489         2.011803        -1.381651
 H        -1.080886         3.089633         2.926519
 H        -1.851051         1.494361         2.874099
 H        -0.028884         2.748983         0.614178
