19
Iteration:   666
 O         0.341393        -0.153944         0.674178
 C        -0.634026         0.787375         0.211228
 C        -2.178337         0.578788         0.387408
 C        -2.050091         2.083953         0.223531
 C        -2.062737         2.348968        -1.274009
 C        -0.772317         1.360483        -1.299776
 O        -2.718415         2.720012         1.340115
 C        -1.536990         2.390381         2.170830
 C        -0.680856         2.084287         0.920631
 H         0.014252        -1.042722         0.409052
 H        -2.742860        -0.044794        -0.304465
 H        -2.477061         0.338826         1.391367
 H        -2.967443         1.974876        -1.739236
 H        -1.762607         3.362829        -1.638928
 H        -0.911228         0.677793        -2.148163
 H         0.060486         2.027081        -1.357401
 H        -1.213914         3.250955         2.644340
 H        -1.708301         1.666603         2.932647
 H         0.153213         2.771279         0.650134
