19
Iteration:  4865charge 0 multiplicity 1
 O         0.205567        -0.345058         0.379964
 C        -0.639149         0.803572         0.135937
 C        -2.168296         0.583533         0.177610
 C        -2.158338         2.106175         0.274925
 C        -1.665672         2.523672        -1.219404
 C        -0.447010         1.514578        -1.216762
 O        -2.921725         2.734252         1.467776
 C        -1.746677         2.204399         2.333037
 C        -0.818763         2.040946         1.016645
 H         0.886710         0.187034         0.872442
 H        -2.698284         0.177173        -0.800244
 H        -2.497454         0.143361         1.095940
 H        -2.441400         2.374052        -2.011566
 H        -1.392074         3.626813        -1.265014
 H        -0.514435         0.688618        -1.964955
 H         0.547254         2.069827        -1.253691
 H        -1.337561         2.846509         3.094517
 H        -1.921593         1.222445         2.897335
 H        -0.038015         2.754775         0.886198
