19
Iteration:  4231charge 0 multiplicity 1
 O         0.281057        -0.351404         0.284836
 C        -0.605979         0.811437         0.194932
 C        -2.177255         0.591656         0.279866
 C        -2.138616         2.108002         0.272053
 C        -1.762400         2.497642        -1.089271
 C        -0.581662         1.473732        -1.199826
 O        -2.847741         2.765251         1.364963
 C        -1.721304         2.324203         2.225339
 C        -0.713831         2.023770         1.076278
 H        -0.039836        -1.143313         0.733852
 H        -2.515478         0.134491        -0.670512
 H        -2.418677         0.001048         1.153366
 H        -2.618323         2.402288        -1.722213
 H        -1.579369         3.642807        -1.098884
 H        -0.623152         0.767924        -2.022031
 H         0.447289         1.944240        -1.406418
 H        -1.577961         3.009021         3.016321
 H        -2.069952         1.408436         2.798083
 H        -0.103159         2.894013         0.844400
