19
Iteration:  3637
 O         0.283490        -0.226187         0.384796
 C        -0.720020         0.783885         0.087955
 C        -2.190317         0.518578         0.225339
 C        -2.053515         2.136210         0.313134
 C        -1.690456         2.596715        -1.046046
 C        -0.614146         1.388110        -1.281729
 O        -2.797545         2.778693         1.393024
 C        -1.752812         2.148329         2.255637
 C        -0.827999         2.013498         1.030316
 H         1.016186         0.260413         0.796744
 H        -2.868419         0.244655        -0.510013
 H        -2.375036         0.068103         1.154929
 H        -2.494890         2.470228        -1.855351
 H        -1.128930         3.518599        -1.066150
 H        -1.009212         0.593295        -1.922262
 H         0.423352         1.573105        -1.510834
 H        -1.532812         2.923575         2.977984
 H        -2.030035         1.215836         2.634221
 H        -0.168044         2.913006         0.977084
