19
Iteration:  4213charge 0 multiplicity 1
 O         0.229245        -0.266903         0.417276
 C        -0.644791         0.729229         0.121381
 C        -2.104219         0.444921         0.219550
 C        -2.083666         2.148426         0.282445
 C        -1.780832         2.637260        -1.089250
 C        -0.626964         1.541104        -1.293426
 O        -2.798106         2.670646         1.310539
 C        -1.717875         2.296540         2.294245
 C        -0.750367         2.004344         1.064571
 H        -0.233173        -0.833940         1.052522
 H        -2.832527        -0.058542        -0.384056
 H        -2.574347         0.158920         1.230887
 H        -2.542679         2.484696        -1.869988
 H        -1.438867         3.639077        -1.129198
 H        -0.754106         0.760633        -2.119648
 H         0.440903         1.943419        -1.402698
 H        -1.249537         3.174815         2.803407
 H        -1.896865         1.607899         3.166358
 H         0.108518         2.685373         0.944828
