19
Iteration:  2223
 O         0.369800        -0.197305         0.415865
 C        -0.685648         0.725083         0.193042
 C        -2.224985         0.537038         0.428542
 C        -2.134196         2.128204         0.258215
 C        -1.887041         2.400109        -1.240745
 C        -0.671654         1.360598        -1.273804
 O        -2.755229         2.827339         1.380220
 C        -1.620782         2.325646         2.325207
 C        -0.714609         2.067570         0.924319
 H        -0.103529        -0.990039         0.685273
 H        -2.636595         0.054414        -0.543519
 H        -2.557794         0.219886         1.453339
 H        -2.752897         2.137203        -1.885949
 H        -1.534290         3.455405        -1.529574
 H        -0.878236         0.628951        -2.052211
 H         0.227016         2.003408        -1.575600
 H        -1.203359         3.349828         2.765992
 H        -1.840602         1.366647         2.901521
 H         0.139020         2.813974         0.807641
