19
Iteration:  3449charge 0 multiplicity 1
 O         0.121243        -0.370195         0.292160
 C        -0.588716         0.796909         0.174878
 C        -2.164871         0.609814         0.276596
 C        -2.056338         2.135528         0.251128
 C        -1.822322         2.488832        -1.188098
 C        -0.504776         1.527612        -1.273986
 O        -2.851199         2.627873         1.392748
 C        -1.750215         2.335027         2.357711
 C        -0.717876         2.025195         1.147852
 H         1.053403        -0.238372         0.549582
 H        -2.557115         0.082356        -0.505908
 H        -2.613106         0.085166         1.120637
 H        -2.469067         2.140188        -1.991747
 H        -1.607985         3.613293        -1.322382
 H        -0.513072         0.991845        -2.144667
 H         0.371733         2.196423        -1.451212
 H        -1.506244         3.283577         2.720340
 H        -1.905733         1.557551         3.082940
 H         0.097092         2.773595         1.169444
