19
Iteration:  2780
 O         0.176876        -0.405678         0.369410
 C        -0.642622         0.756262         0.261652
 C        -2.164871         0.537584         0.350110
 C        -2.061139         2.070662         0.328604
 C        -1.920747         2.380666        -1.146919
 C        -0.692650         1.510476        -1.301871
 O        -2.805995         2.775186         1.302013
 C        -1.551761         2.399898         2.242312
 C        -0.684739         2.165360         1.032275
 H         1.013226         0.007258         0.679909
 H        -2.538901        -0.026966        -0.451654
 H        -2.378663         0.243995         1.451631
 H        -2.725836         2.016555        -1.746743
 H        -1.677836         3.405669        -1.383348
 H        -0.779419         0.564081        -1.965258
 H         0.193466         2.041569        -1.579216
 H        -1.466029         3.271914         2.885456
 H        -1.551241         1.479675         2.877637
 H         0.011985         2.874622         0.433354
