19
Iteration:   855charge 0 multiplicity 1
 O         0.370409        -0.287744         0.250936
 C        -0.624916         0.738702         0.217245
 C        -2.151119         0.428123         0.443159
 C        -2.183833         2.037841         0.361257
 C        -1.780269         2.401990        -1.147235
 C        -0.625222         1.322766        -1.229090
 O        -2.818035         2.848133         1.306290
 C        -1.682400         2.515485         2.225020
 C        -0.817834         2.167036         0.959753
 H         0.532538        -0.600782         1.158895
 H        -2.657431        -0.118096        -0.319145
 H        -2.360552         0.046157         1.451431
 H        -2.689209         2.183878        -1.898742
 H        -1.636543         3.475915        -1.171916
 H        -1.039279         0.521805        -1.886685
 H         0.355903         1.854224        -1.598146
 H        -1.463021         3.254995         3.091264
 H        -1.951998         1.635527         2.751449
 H        -0.118113         3.084874         0.674076
