19
Iteration:  3148charge 0 multiplicity 1
 O         0.269572        -0.404523         0.234494
 C        -0.563165         0.750655         0.219769
 C        -2.150608         0.515909         0.275412
 C        -2.129707         2.101250         0.319553
 C        -1.849715         2.523791        -1.066813
 C        -0.607056         1.514604        -1.218546
 O        -2.772171         2.834111         1.366094
 C        -1.780955         2.342249         2.228844
 C        -0.767932         2.004345         1.088595
 H         1.183179        -0.177006         0.460017
 H        -2.520765        -0.106783        -0.497842
 H        -2.572332         0.051449         1.264750
 H        -2.675286         2.300792        -1.897748
 H        -1.576606         3.570161        -1.178821
 H        -0.884922         0.612391        -1.795617
 H         0.433513         1.804242        -1.529841
 H        -1.474578         3.294269         2.751330
 H        -2.143966         1.519620         2.865485
 H        -0.119422         2.867126         0.923397
