19
Iteration:  2018
 O         0.307992        -0.297799         0.213660
 C        -0.670356         0.728839         0.195627
 C        -2.162638         0.469378         0.418244
 C        -2.061415         2.147137         0.348128
 C        -1.864138         2.361141        -1.127171
 C        -0.664425         1.365194        -1.207206
 O        -2.819303         2.892906         1.278508
 C        -1.642559         2.463758         2.222730
 C        -0.732299         2.041501         1.051125
 H         0.479116        -0.384379         1.185380
 H        -2.676737        -0.046320        -0.496635
 H        -2.420737        -0.188619         1.284071
 H        -2.807981         2.187758        -1.653750
 H        -1.653635         3.476847        -1.315641
 H        -0.954871         0.619066        -1.963476
 H         0.396991         1.659694        -1.454326
 H        -1.232834         3.316902         2.791466
 H        -2.135891         1.826696         2.999911
 H         0.182296         2.736780         1.057738
