19
Iteration:  2473
 O         0.399873        -0.171651         0.344586
 C        -0.669816         0.793832         0.186098
 C        -2.125330         0.636984         0.456179
 C        -2.081521         2.164525         0.299521
 C        -1.857496         2.392394        -1.268280
 C        -0.795744         1.266390        -1.313448
 O        -2.788264         2.812004         1.380984
 C        -1.667723         2.263083         2.288050
 C        -0.714848         2.043723         1.007390
 H        -0.196379        -0.900965         0.623456
 H        -2.827663         0.170108        -0.165134
 H        -2.412203         0.332004         1.407809
 H        -2.728247         2.259406        -1.884302
 H        -1.601814         3.422216        -1.560589
 H        -1.177700         0.459632        -1.924486
 H         0.245164         1.484805        -1.696608
 H        -1.215215         3.138420         2.833640
 H        -1.675434         1.450296         3.001944
 H         0.180213         2.861147         1.025104
