19
Iteration:   699
 O         0.388464        -0.166657         0.426505
 C        -0.633735         0.826281         0.136490
 C        -2.130390         0.507390         0.390797
 C        -2.170464         2.007553         0.291771
 C        -1.877973         2.273665        -1.175621
 C        -0.691085         1.206695        -1.234665
 O        -2.756262         2.961060         1.447028
 C        -1.629701         2.413114         2.207830
 C        -0.831813         2.122120         0.901100
 H        -0.085016        -0.901644         0.900858
 H        -2.599460        -0.063331        -0.405787
 H        -2.349200         0.188744         1.386010
 H        -2.720375         2.092662        -1.878652
 H        -1.449754         3.259846        -1.419855
 H        -0.821540         0.501415        -2.084009
 H         0.138088         1.788142        -1.620054
 H        -1.055177         3.153168         2.691173
 H        -1.885713         1.585248         2.796634
 H        -0.280242         3.059744         0.587976
