19
Iteration:  1390charge 0 multiplicity 1
 O         0.298183        -0.151746         0.518522
 C        -0.701233         0.808082         0.203411
 C        -2.201564         0.475951         0.262486
 C        -2.189494         2.070708         0.222372
 C        -1.895976         2.445956        -1.231938
 C        -0.574733         1.410597        -1.225287
 O        -2.774693         2.823159         1.400551
 C        -1.601736         2.292047         2.194484
 C        -0.742237         2.023848         1.027797
 H         0.067110        -1.048711         0.269163
 H        -2.587497        -0.145608        -0.559837
 H        -2.354280         0.075472         1.249388
 H        -2.667884         2.288225        -1.963718
 H        -1.470484         3.510710        -1.135372
 H        -0.572214         0.608853        -1.951824
 H         0.467137         1.873245        -1.318589
 H        -1.176375         3.138748         2.783420
 H        -1.864529         1.471300         2.798994
 H         0.082875         2.813903         0.826923
