19
Iteration:  3386charge 0 multiplicity 1
 O         0.294911        -0.283161         0.350219
 C        -0.629126         0.706700         0.095150
 C        -2.151856         0.556432         0.264258
 C        -2.023514         2.211610         0.291936
 C        -1.740745         2.563577        -1.067071
 C        -0.656949         1.412745        -1.275622
 O        -2.841284         2.763573         1.366663
 C        -1.839100         2.249448         2.284499
 C        -0.762289         1.980028         1.143823
 H         1.115506        -0.132064        -0.141091
 H        -2.646503         0.074740        -0.584655
 H        -2.552215         0.150904         1.246376
 H        -2.598883         2.467606        -1.746886
 H        -1.269309         3.496068        -1.389159
 H        -0.955190         0.739083        -2.109282
 H         0.339274         1.830962        -1.459082
 H        -1.497490         3.060909         2.950383
 H        -2.257564         1.418984         2.901525
 H         0.123157         2.683389         1.159895
