19
Iteration:   293
 O         0.315473        -0.287475         0.388998
 C        -0.645600         0.761477         0.207971
 C        -2.081471         0.488753         0.394843
 C        -2.117424         2.067099         0.278973
 C        -2.030225         2.289556        -1.241462
 C        -0.673730         1.386398        -1.272682
 O        -2.799773         2.734354         1.421743
 C        -1.516162         2.659204         2.271463
 C        -0.740033         2.103786         0.944734
 H        -0.123342        -1.162110         0.363773
 H        -2.569600        -0.199437        -0.256168
 H        -2.411879         0.280012         1.438786
 H        -2.760914         1.787092        -1.838225
 H        -1.759053         3.331052        -1.585830
 H        -0.825852         0.569370        -2.042209
 H         0.214848         1.997335        -1.362230
 H        -1.231584         3.703788         2.441008
 H        -1.689943         2.210583         3.323584
 H        -0.014506         2.902748         0.680425
