19
Iteration:  4325charge 0 multiplicity 1
 O         0.190748        -0.295971         0.383252
 C        -0.699108         0.819649         0.204569
 C        -2.200090         0.567903         0.169422
 C        -2.142517         2.124927         0.304817
 C        -1.642608         2.565830        -1.207585
 C        -0.552062         1.420372        -1.311495
 O        -2.841021         2.675196         1.480485
 C        -1.644186         2.243821         2.279808
 C        -0.841142         2.054559         1.032715
 H         0.632785         0.003514         1.195547
 H        -2.771880         0.032445        -0.642390
 H        -2.374762         0.138140         1.139547
 H        -2.413860         2.494254        -2.032943
 H        -1.368401         3.568092        -1.175279
 H        -0.640826         0.566749        -2.012129
 H         0.378683         1.835562        -1.641919
 H        -1.129919         3.080894         2.931336
 H        -1.778782         1.439901         2.970699
 H        -0.058543         2.848742         0.918910
