19
Iteration:  1747
 O         0.387100        -0.277675         0.350761
 C        -0.659090         0.699290         0.170684
 C        -2.212854         0.514672         0.358975
 C        -2.172754         2.178412         0.274171
 C        -1.853635         2.342813        -1.215284
 C        -0.660286         1.322323        -1.169942
 O        -2.749462         2.995578         1.321692
 C        -1.710418         2.360763         2.253435
 C        -0.771238         2.040247         1.108186
 H         0.956763        -0.405227        -0.445425
 H        -2.627642        -0.167917        -0.412131
 H        -2.426833         0.150962         1.411734
 H        -2.703773         1.913421        -1.806440
 H        -1.723821         3.436678        -1.576382
 H        -0.675605         0.508984        -1.952125
 H         0.228265         1.965057        -1.423218
 H        -1.355283         3.005359         3.103431
 H        -2.093204         1.515196         2.898223
 H         0.121498         2.743935         1.220206
