19
Iteration:  3812charge 0 multiplicity 1
 O         0.139556        -0.305650         0.356828
 C        -0.686567         0.786336         0.076400
 C        -2.194111         0.467364         0.232639
 C        -2.113087         2.075663         0.334651
 C        -1.746792         2.486451        -1.173700
 C        -0.498252         1.580202        -1.214645
 O        -2.797433         2.706663         1.383878
 C        -1.663171         2.327570         2.291020
 C        -0.788641         1.955442         1.050380
 H         0.850660        -0.024089         0.957268
 H        -2.726282         0.019866        -0.572094
 H        -2.417903         0.053928         1.232758
 H        -2.677470         2.465363        -1.847047
 H        -1.442464         3.474258        -1.209686
 H        -0.351497         0.939962        -2.172924
 H         0.375699         2.291706        -1.198439
 H        -1.287676         3.277755         2.834493
 H        -1.845834         1.632992         3.103297
 H        -0.252535         2.937201         0.993177
