19
Iteration:   754charge 0 multiplicity 1
 O         0.298947        -0.356172         0.310232
 C        -0.625003         0.786683         0.198040
 C        -2.159849         0.548262         0.469670
 C        -2.177531         1.998563         0.283311
 C        -1.901134         2.323429        -1.139518
 C        -0.619430         1.340726        -1.277991
 O        -2.823764         2.792577         1.310250
 C        -1.658456         2.626307         2.238140
 C        -0.759493         2.067287         1.031598
 H         1.194928        -0.062129         0.576161
 H        -2.737713         0.015213        -0.286009
 H        -2.133425         0.174267         1.480115
 H        -2.756210         2.087889        -1.855556
 H        -1.486054         3.333281        -1.247651
 H        -0.759865         0.497281        -2.044832
 H         0.243552         1.952474        -1.597388
 H        -1.243975         3.575081         2.644033
 H        -1.793275         1.981225         3.113841
 H         0.090284         2.806841         0.785745
