19
Iteration:  2915charge 0 multiplicity 1
 O         0.280802        -0.335055         0.290852
 C        -0.708728         0.783808         0.250169
 C        -2.252221         0.487494         0.336098
 C        -2.190351         2.107913         0.224962
 C        -1.878279         2.438320        -1.269296
 C        -0.611212         1.500063        -1.175818
 O        -2.784781         2.732565         1.446793
 C        -1.593285         2.477094         2.228757
 C        -0.660430         1.978820         1.046549
 H         0.999825        -0.118218         0.924724
 H        -2.796635        -0.066306        -0.530803
 H        -2.639717         0.132229         1.219091
 H        -2.642207         1.986976        -1.854423
 H        -1.643154         3.506153        -1.472950
 H        -0.436596         0.702949        -1.900088
 H         0.218781         2.235854        -1.046227
 H        -1.186488         3.360756         2.629703
 H        -1.898517         1.716161         2.915401
 H         0.236014         2.542132         0.752617
