19
Iteration:   226
 O         0.460966        -0.183452         0.387150
 C        -0.646771         0.667191         0.201103
 C        -2.157257         0.422919         0.515689
 C        -2.131696         2.098152         0.292908
 C        -1.959644         2.347160        -1.205099
 C        -0.803756         1.365351        -1.319587
 O        -2.713674         2.988337         1.314141
 C        -1.659974         2.378550         2.205410
 C        -0.746625         2.023495         0.957607
 H         0.704940        -0.148400         1.336205
 H        -2.743350        -0.199846        -0.226374
 H        -2.427871         0.089311         1.523482
 H        -2.848734         2.000363        -1.791780
 H        -1.734555         3.395557        -1.411358
 H        -1.036870         0.550699        -2.093913
 H         0.121257         1.873927        -1.547522
 H        -1.238658         3.190983         2.853335
 H        -2.060277         1.556593         2.881904
 H         0.003812         2.831900         0.611387
