19
Iteration:  4132
 O         0.368061        -0.383268         0.249158
 C        -0.603338         0.664227         0.055990
 C        -2.147217         0.593230         0.309835
 C        -2.079444         2.170162         0.347062
 C        -1.852530         2.509876        -1.062824
 C        -0.563951         1.539402        -1.227701
 O        -2.805167         2.849929         1.252378
 C        -1.888051         2.279483         2.334113
 C        -0.773684         1.961784         1.137248
 H         0.311115        -0.629877         1.193798
 H        -2.683453         0.101461        -0.546877
 H        -2.220635         0.213808         1.276219
 H        -2.693947         2.255787        -1.693830
 H        -1.502593         3.561945        -1.281076
 H        -0.621512         0.807237        -2.071545
 H         0.494470         2.049254        -1.301593
 H        -1.361513         3.016950         2.892965
 H        -2.319278         1.343480         2.857201
 H        -0.089455         2.840488         1.053171
