19
Iteration:  4675
 O         0.342581        -0.189737         0.247887
 C        -0.651209         0.713767         0.215115
 C        -2.286858         0.535912         0.215102
 C        -2.088367         2.097618         0.320306
 C        -1.655697         2.516885        -1.122880
 C        -0.555898         1.396027        -1.143442
 O        -2.901343         2.808447         1.328949
 C        -1.783658         2.307033         2.286402
 C        -0.745649         1.939199         1.180794
 H         0.715522        -0.617293        -0.533206
 H        -2.681535         0.147341        -0.682502
 H        -2.508527         0.170448         1.277229
 H        -2.502743         2.282037        -1.827141
 H        -1.529094         3.570538        -1.272474
 H        -0.883804         0.643453        -1.841510
 H         0.439877         1.771817        -1.458108
 H        -1.347555         3.259115         2.861076
 H        -2.154639         1.659526         3.073390
 H         0.018048         2.782934         0.899184
