19
Iteration:  1946charge 0 multiplicity 1
 O         0.268827        -0.278925         0.470026
 C        -0.679760         0.761843         0.180817
 C        -2.206829         0.525952         0.318922
 C        -2.154346         2.066341         0.286816
 C        -1.891014         2.465311        -1.138667
 C        -0.661901         1.410294        -1.320103
 O        -2.734613         2.700308         1.342469
 C        -1.518629         2.445674         2.242213
 C        -0.737581         2.048834         0.971794
 H         0.072760        -0.528384         1.405705
 H        -2.813322         0.028759        -0.435720
 H        -2.416448         0.088800         1.284702
 H        -2.646182         2.328755        -1.908976
 H        -1.550596         3.518074        -1.267122
 H        -0.812528         0.598933        -2.046642
 H         0.236060         1.958998        -1.622410
 H        -1.184197         3.500761         2.351936
 H        -1.747891         1.846529         3.174161
 H        -0.062183         2.865546         0.700480
