19
Iteration:  4102charge 0 multiplicity 1
 O         0.268268        -0.262434         0.199706
 C        -0.689554         0.818001         0.222562
 C        -2.166691         0.476995         0.232035
 C        -2.207529         2.110297         0.248379
 C        -1.761025         2.514868        -1.133702
 C        -0.485131         1.475265        -1.137838
 O        -2.818757         2.741778         1.392254
 C        -1.742446         2.387145         2.274795
 C        -0.753697         1.986684         1.102424
 H         0.036822        -1.056184         0.710219
 H        -2.421116        -0.131874        -0.669184
 H        -2.477727        -0.054206         1.179419
 H        -2.435698         2.360692        -1.915977
 H        -1.350587         3.567557        -1.106885
 H        -0.640080         0.589829        -1.764886
 H         0.603425         1.932475        -1.109048
 H        -1.268745         3.205781         2.717155
 H        -1.995789         1.463529         2.963790
 H        -0.154673         2.872822         0.952185
