19
Iteration:  1753
 O         0.377513        -0.292333         0.374564
 C        -0.639662         0.712430         0.227918
 C        -2.167398         0.522597         0.361131
 C        -2.191123         2.143452         0.269855
 C        -1.884592         2.345312        -1.211310
 C        -0.635363         1.339423        -1.220282
 O        -2.737308         3.008567         1.373813
 C        -1.730496         2.331863         2.236751
 C        -0.792965         2.024898         1.077088
 H         0.917007        -0.348496        -0.448149
 H        -2.582541        -0.100571        -0.427161
 H        -2.541635         0.254125         1.324542
 H        -2.670708         2.082197        -1.930873
 H        -1.514778         3.300677        -1.479007
 H        -0.761555         0.616362        -2.015473
 H         0.236306         1.940526        -1.396458
 H        -1.384393         3.188443         2.830461
 H        -2.057677         1.535732         2.920299
 H         0.035385         2.683232         0.900129
