19
Iteration:   669charge 0 multiplicity 1
 O         0.351695        -0.159758         0.669611
 C        -0.668938         0.790825         0.195462
 C        -2.180298         0.544994         0.404726
 C        -2.051805         2.084554         0.239167
 C        -2.060379         2.369577        -1.308208
 C        -0.745962         1.359955        -1.298414
 O        -2.729771         2.737844         1.343188
 C        -1.531634         2.389322         2.193075
 C        -0.670894         2.091130         0.918512
 H         0.045098        -1.057267         0.523291
 H        -2.718675        -0.054091        -0.294718
 H        -2.526157         0.292423         1.394936
 H        -2.987356         1.933376        -1.865588
 H        -1.826013         3.326358        -1.666216
 H        -0.989827         0.647670        -2.151709
 H         0.118675         2.082865        -1.462778
 H        -1.162736         3.327249         2.794854
 H        -1.723573         1.566748         2.893701
 H         0.166957         2.772830         0.643949
