19
Iteration:  1537
 O         0.246076        -0.314402         0.570406
 C        -0.625831         0.792787         0.200350
 C        -2.162824         0.515205         0.354090
 C        -2.154342         2.020271         0.239885
 C        -1.778262         2.531764        -1.205921
 C        -0.590936         1.418715        -1.317715
 O        -2.789736         2.715239         1.403106
 C        -1.623357         2.435442         2.254125
 C        -0.831513         2.109069         0.922958
 H         0.594711        -0.633190        -0.273658
 H        -2.594583        -0.176824        -0.384973
 H        -2.357991         0.210511         1.367808
 H        -2.689046         2.323195        -1.869212
 H        -1.566583         3.543974        -1.311618
 H        -1.065564         0.619038        -1.931617
 H         0.252745         1.808443        -1.801107
 H        -1.423516         3.205273         2.868161
 H        -1.625993         1.550039         2.983521
 H        -0.201590         2.902675         0.553298
