19
Iteration:  3862
 O         0.188368        -0.297947         0.280151
 C        -0.698247         0.766836         0.191393
 C        -2.138430         0.513795         0.324802
 C        -2.053184         2.101546         0.317768
 C        -1.720347         2.526507        -1.094136
 C        -0.613566         1.454598        -1.250838
 O        -2.838651         2.723658         1.336592
 C        -1.796877         2.331210         2.244868
 C        -0.691265         2.036072         1.085593
 H         1.116871        -0.013800         0.251531
 H        -2.723998        -0.010467        -0.496386
 H        -2.472001         0.094276         1.276241
 H        -2.414296         2.494860        -1.906532
 H        -1.316415         3.638499        -1.064370
 H        -0.735434         0.801869        -2.062050
 H         0.388418         1.872262        -1.302004
 H        -1.545233         3.077415         2.962114
 H        -2.040864         1.353749         2.738080
 H         0.100852         2.754126         1.038131
