19
Iteration:  4009
 O         0.433132        -0.298574         0.250331
 C        -0.636266         0.722517         0.163126
 C        -2.283413         0.689239         0.261048
 C        -2.124168         2.171472         0.330413
 C        -1.731573         2.440965        -1.125614
 C        -0.554564         1.489538        -1.235830
 O        -2.825925         2.822712         1.382334
 C        -1.785876         2.187180         2.281163
 C        -0.846413         1.887868         1.083990
 H         0.964907        -0.058844         1.031977
 H        -2.922872         0.177693        -0.448323
 H        -2.570806         0.249885         1.262112
 H        -2.620136         2.224035        -1.831762
 H        -1.420472         3.435129        -1.270390
 H        -0.648865         0.792062        -2.092640
 H         0.331948         2.082857        -1.291064
 H        -1.371176         3.104633         2.869974
 H        -2.366807         1.481203         2.856161
 H        -0.121773         2.701302         0.824696
