19
Iteration:  4433charge 0 multiplicity 1
 O         0.320551        -0.257424         0.247882
 C        -0.655176         0.726533         0.213755
 C        -2.198121         0.582975         0.241505
 C        -2.095874         2.213757         0.321709
 C        -1.703423         2.584563        -1.209817
 C        -0.575216         1.353814        -1.157488
 O        -2.884496         2.662997         1.418352
 C        -1.712465         2.379737         2.267138
 C        -0.773058         1.978573         1.121908
 H        -0.073236        -1.047817         0.665947
 H        -2.622950        -0.062775        -0.583091
 H        -2.555767         0.244561         1.190587
 H        -2.508050         2.312767        -1.993347
 H        -1.303162         3.554057        -1.439607
 H        -0.842837         0.732960        -2.109291
 H         0.282769         1.987531        -1.372884
 H        -1.487188         3.333654         2.853986
 H        -1.899070         1.502404         2.819902
 H         0.013824         2.759957         0.864110
