19
Iteration:  2390
 O         0.245470        -0.383361         0.169375
 C        -0.580875         0.744677         0.268106
 C        -2.105373         0.548487         0.401037
 C        -2.150266         2.113643         0.314798
 C        -1.869899         2.383164        -1.159015
 C        -0.698954         1.355235        -1.216503
 O        -2.825759         2.801429         1.362014
 C        -1.671300         2.498701         2.322372
 C        -0.705428         2.135963         1.008109
 H         1.018473        -0.117798         0.679484
 H        -2.446445        -0.093096        -0.498858
 H        -2.605167         0.259233         1.368149
 H        -2.737891         2.123075        -1.808611
 H        -1.377353         3.357311        -1.393477
 H        -0.940657         0.495373        -1.912936
 H         0.222938         1.805008        -1.586249
 H        -1.169940         3.363049         2.710392
 H        -1.955894         1.637490         2.984004
 H         0.075076         2.766939         0.824317
