19
Iteration:  4342
 O         0.186058        -0.239121         0.392123
 C        -0.631592         0.745575         0.085955
 C        -2.274306         0.663203         0.248391
 C        -2.106982         2.215252         0.257648
 C        -1.729943         2.492016        -1.137914
 C        -0.539285         1.411251        -1.228041
 O        -2.848199         2.618739         1.450175
 C        -1.670941         2.232677         2.294278
 C        -0.705996         2.024242         0.993119
 H         0.742359         0.006299         1.153545
 H        -2.733658         0.315474        -0.643459
 H        -2.752833         0.216092         1.160321
 H        -2.539818         2.342767        -1.843403
 H        -1.245379         3.544815        -1.460110
 H        -0.767387         0.799809        -2.150132
 H         0.530429         1.777433        -1.266079
 H        -1.411832         3.062211         2.865954
 H        -1.909411         1.249313         2.820796
 H         0.003662         2.840919         0.863502
