19
Iteration:  2982charge 0 multiplicity 1
 O         0.305169        -0.272944         0.402248
 C        -0.605605         0.783357         0.130078
 C        -2.216203         0.543000         0.410883
 C        -2.079960         2.187145         0.302295
 C        -1.804045         2.538928        -1.206516
 C        -0.733726         1.352493        -1.268690
 O        -2.789525         2.755002         1.361678
 C        -1.696020         2.281110         2.317463
 C        -0.728692         2.040708         0.991946
 H         1.063754        -0.206152        -0.200797
 H        -2.683107        -0.200506        -0.264795
 H        -2.433272         0.260226         1.376228
 H        -2.602326         2.192566        -1.844620
 H        -1.275953         3.453395        -1.519371
 H        -1.154735         0.582063        -1.886797
 H         0.280923         1.689888        -1.650945
 H        -1.471306         3.092442         2.981628
 H        -2.091858         1.433787         2.795555
 H        -0.092788         2.916220         1.004367
