19
Iteration:  2938
 O         0.215830        -0.329265         0.430817
 C        -0.689320         0.734513         0.102381
 C        -2.174907         0.521866         0.247535
 C        -2.102316         2.100692         0.300956
 C        -1.845365         2.395093        -1.120604
 C        -0.592005         1.475365        -1.310744
 O        -2.789372         2.733999         1.410895
 C        -1.574970         2.424284         2.314068
 C        -0.786886         2.043976         0.986099
 H         0.968380         0.150330         0.820583
 H        -2.944202         0.302547        -0.530639
 H        -2.315478         0.024952         1.115181
 H        -2.700955         1.969968        -1.639323
 H        -1.727380         3.480752        -1.275777
 H        -0.700844         0.776997        -2.110621
 H         0.361657         2.081743        -1.327015
 H        -1.198014         3.378118         2.592551
 H        -1.823676         1.785748         3.117167
 H        -0.138012         2.859000         0.673608
