19
Iteration:  1091
 O         0.458460        -0.128567         0.364278
 C        -0.726037         0.652950         0.212971
 C        -2.229592         0.451372         0.405939
 C        -2.117363         2.101013         0.227508
 C        -1.746903         2.514761        -1.065335
 C        -0.679333         1.326478        -1.286996
 O        -2.769355         2.841213         1.274738
 C        -1.703363         2.351434         2.219151
 C        -0.866209         1.990971         0.993277
 H         0.794143         0.029581         1.248490
 H        -2.820519        -0.088327        -0.387677
 H        -2.565975         0.168946         1.464212
 H        -2.524448         2.525405        -1.861482
 H        -1.327394         3.540541        -1.017342
 H        -1.169226         0.591763        -2.078822
 H         0.326621         1.648325        -1.487341
 H        -1.382131         3.030835         3.055469
 H        -2.066105         1.453783         2.713700
 H        -0.041632         2.677675         0.777743
