19
Iteration:  3034
 O         0.347620        -0.301404         0.364515
 C        -0.694672         0.677836         0.190574
 C        -2.157730         0.416039         0.332353
 C        -2.128205         2.008913         0.302432
 C        -1.889174         2.523543        -1.119985
 C        -0.618329         1.556057        -1.219119
 O        -2.771866         2.833863         1.384802
 C        -1.649867         2.469581         2.201408
 C        -0.791684         2.005428         0.998038
 H         0.195757        -0.964378        -0.327248
 H        -2.792375        -0.171635        -0.435556
 H        -2.347169         0.108001         1.276741
 H        -2.579060         2.264169        -1.878498
 H        -1.719799         3.648140        -1.149198
 H        -0.602653         0.864642        -2.088026
 H         0.361794         2.044233        -1.113517
 H        -1.277991         3.242720         2.873256
 H        -1.973143         1.524485         2.804796
 H         0.099247         2.679825         0.961393
