19
Iteration:    72charge 0 multiplicity 1
 O         0.378185        -0.254381         0.314466
 C        -0.597388         0.760956         0.261086
 C        -2.069478         0.415999         0.373704
 C        -2.118558         2.062680         0.267537
 C        -1.910186         2.360945        -1.157420
 C        -0.721408         1.401835        -1.311779
 O        -2.778830         2.846686         1.382240
 C        -1.720476         2.538980         2.211562
 C        -0.790573         2.074192         1.063462
 H         0.164901        -0.826381         1.066734
 H        -2.480082        -0.262840        -0.424075
 H        -2.294905         0.126078         1.411862
 H        -2.754723         2.123958        -1.876725
 H        -1.612016         3.391821        -1.329039
 H        -0.971191         0.460073        -1.929365
 H         0.279317         1.788857        -1.648367
 H        -1.369272         3.482628         2.737007
 H        -1.909722         1.611918         2.832305
 H        -0.081316         2.892350         0.651394
