19
Iteration:  1034charge 0 multiplicity 1
 O         0.267428        -0.370647         0.389193
 C        -0.579272         0.811832         0.229993
 C        -2.114880         0.527062         0.320441
 C        -2.128475         2.072118         0.259834
 C        -1.935526         2.305615        -1.183811
 C        -0.575049         1.557791        -1.256935
 O        -2.819184         2.693223         1.348233
 C        -1.681238         2.445239         2.231795
 C        -0.670795         2.172034         1.038683
 H        -0.355018        -0.977541         0.858262
 H        -2.778321         0.063812        -0.455260
 H        -2.476561         0.210833         1.335040
 H        -2.615481         1.903965        -1.905707
 H        -1.690001         3.412863        -1.369714
 H        -0.490619         0.838324        -2.121055
 H         0.282434         2.293725        -1.391374
 H        -1.404626         3.354954         2.643066
 H        -2.021277         1.707194         2.993938
 H         0.025483         2.971755         1.070267
