19
Iteration:  3896
 O         0.384409        -0.300509         0.445017
 C        -0.617008         0.705695         0.134019
 C        -2.219519         0.519531         0.172477
 C        -2.152977         2.145202         0.312502
 C        -1.812379         2.478639        -1.116620
 C        -0.612417         1.429485        -1.218054
 O        -2.741951         2.884230         1.424114
 C        -1.792221         2.253301         2.258404
 C        -0.820656         2.002613         1.007187
 H         0.939419        -0.296807        -0.356003
 H        -2.799058         0.211341        -0.769572
 H        -2.606552         0.036313         1.083595
 H        -2.626863         2.426988        -1.825880
 H        -1.366402         3.542632        -0.972004
 H        -0.655574         0.871172        -2.086879
 H         0.279851         2.038757        -1.162546
 H        -1.406832         2.927738         3.077402
 H        -2.179606         1.318420         2.680575
 H        -0.110566         2.814812         0.971648
