19
Iteration:  1401
 O         0.301150        -0.210800         0.512703
 C        -0.657584         0.781077         0.188142
 C        -2.205588         0.550872         0.280267
 C        -2.173363         2.093648         0.320814
 C        -1.812139         2.348158        -1.200052
 C        -0.555277         1.420578        -1.263479
 O        -2.819380         2.705696         1.412250
 C        -1.600138         2.378661         2.229085
 C        -0.769308         2.109900         0.946776
 H        -0.204478        -1.016239         0.249837
 H        -2.736086         0.248313        -0.635977
 H        -2.737815         0.050361         1.080195
 H        -2.514312         2.418830        -1.995195
 H        -1.444374         3.468464        -1.262091
 H        -0.633786         0.621086        -1.972817
 H         0.326134         2.131406        -1.466829
 H        -1.209421         3.158782         2.943033
 H        -1.829320         1.530187         2.809310
 H        -0.022167         2.921464         0.581036
