19
Iteration:  2831charge 0 multiplicity 1
 O         0.367421        -0.179841         0.454800
 C        -0.706593         0.729048         0.136767
 C        -2.309836         0.556950         0.400701
 C        -2.132962         2.089245         0.258741
 C        -1.865320         2.412127        -1.175087
 C        -0.682137         1.361304        -1.234269
 O        -2.720821         2.746467         1.391415
 C        -1.598631         2.385994         2.208316
 C        -0.720252         2.072272         1.010027
 H         0.371434        -0.826244        -0.267884
 H        -2.726866         0.201792        -0.582237
 H        -2.759472         0.169159         1.295736
 H        -2.532696         2.323722        -2.079448
 H        -1.502935         3.453239        -1.154638
 H        -0.782412         0.674198        -2.024272
 H         0.350576         1.816881        -1.379611
 H        -1.275005         3.149234         2.991139
 H        -1.846568         1.517362         2.845320
 H        -0.030401         2.819760         0.701264
