19
Iteration:  2378
 O         0.275817        -0.372599         0.213362
 C        -0.644070         0.802803         0.216481
 C        -2.096530         0.483025         0.385447
 C        -2.048411         2.113888         0.289002
 C        -1.847196         2.406233        -1.175947
 C        -0.707023         1.317958        -1.247129
 O        -2.811609         2.868250         1.395304
 C        -1.638006         2.453103         2.226809
 C        -0.793582         2.100130         1.104873
 H         1.220218        -0.252149         0.468213
 H        -2.752312        -0.059665        -0.397707
 H        -2.305144         0.129556         1.418897
 H        -2.712004         2.235233        -1.839227
 H        -1.674916         3.526011        -1.302215
 H        -1.094153         0.382570        -1.723620
 H         0.242952         1.645422        -1.673979
 H        -1.526884         3.314746         2.948425
 H        -1.873341         1.706769         3.026101
 H        -0.234334         2.960732         0.875388
