19
Iteration:  3092
 O         0.339887        -0.234539         0.345626
 C        -0.631934         0.768293         0.225415
 C        -2.215524         0.585362         0.171998
 C        -2.127563         2.133453         0.263744
 C        -1.828399         2.468566        -1.221530
 C        -0.705847         1.423650        -1.222031
 O        -2.811515         2.771110         1.462216
 C        -1.580183         2.202094         2.289998
 C        -0.783721         2.107288         1.009976
 H         0.258104        -0.862184         1.092283
 H        -2.645673         0.101773        -0.677745
 H        -2.645321         0.225896         1.205044
 H        -2.577221         2.240245        -2.096198
 H        -1.373800         3.468863        -1.230866
 H        -0.812802         0.541494        -1.847600
 H         0.402482         1.692328        -1.385554
 H        -1.262889         3.079217         2.910488
 H        -1.847343         1.371186         3.010255
 H        -0.051956         2.943048         1.018512
