19
Iteration:   202charge 0 multiplicity 1
 O         0.337870        -0.274071         0.192131
 C        -0.579130         0.739766         0.246388
 C        -2.165037         0.540083         0.362517
 C        -2.113182         2.037853         0.370887
 C        -1.987754         2.207439        -1.163644
 C        -0.640652         1.280028        -1.206223
 O        -2.782441         2.940332         1.357187
 C        -1.698547         2.569352         2.238954
 C        -0.712249         2.097295         1.073169
 H         1.101614        -0.012654         0.720477
 H        -2.740167         0.094116        -0.573621
 H        -2.391633        -0.092612         1.225983
 H        -2.900920         1.781465        -1.686255
 H        -1.747312         3.183689        -1.484621
 H        -0.711416         0.251414        -1.625637
 H         0.221077         1.863361        -1.609681
 H        -1.326230         3.466307         2.826738
 H        -2.004394         1.790966         3.007155
 H        -0.207937         3.001655         0.481921
