19
Iteration:   441
 O         0.415533        -0.222499         0.338562
 C        -0.685041         0.704578         0.232192
 C        -2.130564         0.556272         0.498118
 C        -2.094746         2.092107         0.314771
 C        -2.029364         2.229598        -1.224994
 C        -0.747575         1.336871        -1.267055
 O        -2.766477         2.824966         1.289102
 C        -1.594222         2.610682         2.227553
 C        -0.654882         2.055695         1.027671
 H        -0.008875        -1.087457         0.425315
 H        -2.950265         0.169336        -0.237162
 H        -2.461535         0.321835         1.526811
 H        -2.972956         1.817353        -1.814533
 H        -1.945393         3.221732        -1.600724
 H        -0.750641         0.575972        -2.067205
 H         0.259000         1.788409        -1.381074
 H        -1.283485         3.611550         2.667095
 H        -1.791507         1.787052         2.899545
 H         0.186944         2.776282         0.976746
