19
Iteration:  4108
 O         0.271082        -0.278249         0.190211
 C        -0.625598         0.763069         0.237840
 C        -2.213003         0.458961         0.231687
 C        -2.174016         2.034582         0.305754
 C        -1.740677         2.523379        -1.091788
 C        -0.507372         1.500128        -1.190960
 O        -2.808135         2.805719         1.369801
 C        -1.806364         2.373185         2.266921
 C        -0.755545         2.046612         1.129348
 H         0.003438        -0.986067         0.795773
 H        -2.353832        -0.103465        -0.690171
 H        -2.370406        -0.118263         1.125180
 H        -2.571561         2.266928        -1.863970
 H        -1.407559         3.543817        -1.184696
 H        -0.567115         0.718225        -1.976819
 H         0.436922         1.989698        -1.267988
 H        -1.301565         3.220018         2.847902
 H        -2.056679         1.490812         2.803466
 H         0.067547         2.791052         0.920201
