19
Iteration:  2663
 O         0.208924        -0.352865         0.376287
 C        -0.604542         0.819503         0.147737
 C        -2.104770         0.503669         0.388315
 C        -2.175953         2.103583         0.332663
 C        -1.869195         2.333013        -1.183012
 C        -0.632656         1.392256        -1.293244
 O        -2.840003         2.772847         1.464629
 C        -1.518859         2.460309         2.251429
 C        -0.736823         2.224474         0.940889
 H        -0.316213        -1.095038         0.056411
 H        -2.561052         0.166210        -0.479984
 H        -2.174642         0.133251         1.470673
 H        -2.591117         1.730293        -1.801615
 H        -1.769031         3.376582        -1.587588
 H        -0.778209         0.610881        -2.126605
 H         0.146870         2.062109        -1.481579
 H        -1.275157         3.321913         2.818188
 H        -1.439956         1.554839         2.926243
 H        -0.012051         3.026681         0.878620
