19
Iteration:  3574charge 0 multiplicity 1
 O         0.053894        -0.371863         0.248101
 C        -0.570536         0.806002         0.191473
 C        -2.099472         0.533711         0.334400
 C        -2.128397         2.045575         0.309933
 C        -1.751156         2.443969        -1.128713
 C        -0.430844         1.616817        -1.292325
 O        -2.862769         2.722455         1.340996
 C        -1.739485         2.287427         2.255390
 C        -0.768623         2.076419         1.152324
 H         1.024034        -0.339409         0.270076
 H        -2.714376         0.034638        -0.476107
 H        -2.305369         0.194429         1.362559
 H        -2.665407         2.289133        -1.819438
 H        -1.680748         3.504969        -0.955843
 H        -0.364310         0.754736        -2.110676
 H         0.455610         2.219112        -1.268577
 H        -1.511468         3.206557         2.908017
 H        -1.906201         1.475248         2.987896
 H        -0.118548         2.970176         0.939563
