19
Iteration:  3687
 O         0.123459        -0.340590         0.331719
 C        -0.654869         0.711240         0.081604
 C        -2.147070         0.557539         0.155377
 C        -2.051329         2.159450         0.336672
 C        -1.814819         2.448740        -1.041517
 C        -0.451324         1.536242        -1.267605
 O        -2.885226         2.684441         1.378452
 C        -1.686229         2.396806         2.356255
 C        -0.739067         1.978356         1.062449
 H         1.057646        -0.114221         0.483124
 H        -2.535423         0.063774        -0.836533
 H        -2.404561        -0.066930         1.087295
 H        -2.583935         2.135020        -1.655892
 H        -1.587396         3.555235        -1.147325
 H        -0.403523         0.979075        -2.163242
 H         0.445029         2.259278        -1.064876
 H        -1.527606         3.375910         2.803537
 H        -2.152067         1.626287         3.104924
 H        -0.173124         2.859900         0.963885
