19
Iteration:  3191
 O         0.194410        -0.315975         0.429619
 C        -0.673659         0.813890         0.158154
 C        -2.160725         0.596308         0.331554
 C        -2.114909         2.095187         0.213210
 C        -1.769061         2.522803        -1.215968
 C        -0.492916         1.504604        -1.249543
 O        -2.829496         2.681658         1.505333
 C        -1.707867         2.284769         2.242648
 C        -0.763556         2.010163         0.997038
 H         0.499695        -0.573619        -0.450019
 H        -2.797484         0.146918        -0.374388
 H        -2.435700         0.271786         1.456912
 H        -2.507076         2.006751        -1.990952
 H        -1.625023         3.574266        -1.343118
 H        -0.655649         0.837484        -2.115673
 H         0.413277         2.184821        -1.373746
 H        -1.188168         3.198669         2.706258
 H        -1.987092         1.454016         2.990255
 H         0.051681         2.756766         0.957745
