19
Iteration:   639
 O         0.295350        -0.242614         0.564738
 C        -0.587199         0.754111         0.150833
 C        -2.182743         0.477813         0.413599
 C        -2.143330         2.034698         0.271894
 C        -1.950773         2.328650        -1.209491
 C        -0.671563         1.331452        -1.295583
 O        -2.850760         2.803149         1.410039
 C        -1.529702         2.564568         2.193706
 C        -0.704047         2.156989         0.932876
 H         0.520915        -0.736454        -0.252656
 H        -2.715120        -0.093362        -0.398448
 H        -2.309190         0.008043         1.440273
 H        -2.778807         1.916162        -1.854166
 H        -1.671114         3.365810        -1.461740
 H        -1.015222         0.561301        -2.043901
 H         0.380497         1.682801        -1.572839
 H        -1.230140         3.589155         2.708021
 H        -1.666218         1.779995         3.009695
 H         0.020799         2.829733         0.486365
