19
Iteration:   251charge 0 multiplicity 1
 O         0.366165        -0.078933         0.532126
 C        -0.680104         0.754849         0.127834
 C        -2.170756         0.492969         0.481313
 C        -2.200718         2.097861         0.240184
 C        -1.901744         2.400282        -1.206105
 C        -0.779294         1.242502        -1.339656
 O        -2.747988         2.730927         1.394539
 C        -1.484141         2.377474         2.199294
 C        -0.753049         2.141171         0.855863
 H         0.010873        -0.690898         1.218743
 H        -2.684720        -0.205032        -0.107892
 H        -2.307609         0.369247         1.573700
 H        -2.714151         2.304251        -1.893086
 H        -1.517241         3.503659        -1.234980
 H        -1.082226         0.479607        -2.090760
 H         0.189059         1.688338        -1.621579
 H        -1.144369         3.323797         2.606732
 H        -1.615085         1.578392         2.966317
 H         0.035041         2.782313         0.588087
