19
Iteration:   909
 O         0.201866        -0.343520         0.410274
 C        -0.641978         0.737497         0.207798
 C        -2.136667         0.495986         0.269652
 C        -2.107622         2.012078         0.308723
 C        -1.924255         2.328879        -1.216268
 C        -0.596796         1.443451        -1.199225
 O        -2.799791         2.739496         1.383937
 C        -1.614924         2.553902         2.232174
 C        -0.730135         2.131371         1.007536
 H         1.099925         0.031294         0.534640
 H        -2.529705        -0.002009        -0.594317
 H        -2.564243         0.075754         1.178371
 H        -2.823807         1.941471        -1.826787
 H        -1.888953         3.384212        -1.408884
 H        -0.446201         0.837404        -2.096601
 H         0.196807         2.208332        -1.117199
 H        -1.258738         3.544530         2.696672
 H        -1.705106         1.789182         2.993594
 H        -0.071036         3.051132         0.749434
