19
Iteration:  3869
 O         0.192320        -0.261454         0.321036
 C        -0.662308         0.748229         0.135083
 C        -2.141087         0.479765         0.361959
 C        -2.125207         2.110846         0.293456
 C        -1.681032         2.539366        -1.164073
 C        -0.569075         1.478932        -1.252926
 O        -2.822789         2.783939         1.347788
 C        -1.759579         2.297306         2.284711
 C        -0.742184         1.940750         1.098498
 H         1.075606         0.070108         0.060271
 H        -2.666266        -0.105337        -0.382278
 H        -2.562247         0.195005         1.337534
 H        -2.547538         2.403364        -1.895241
 H        -1.437417         3.604665        -0.961444
 H        -0.979723         0.845047        -2.168938
 H         0.466328         1.892500        -1.396900
 H        -1.609671         3.122162         2.985054
 H        -2.084976         1.305943         2.655511
 H         0.014617         2.806293         1.122129
