19
Iteration:  3367charge 0 multiplicity 1
 O         0.301539        -0.357877         0.356355
 C        -0.599183         0.791532         0.217926
 C        -2.181357         0.705066         0.292745
 C        -2.088277         2.187122         0.361439
 C        -1.689228         2.532469        -1.218969
 C        -0.612753         1.371926        -1.404579
 O        -2.899003         2.773264         1.406184
 C        -1.809099         2.145046         2.350718
 C        -0.754513         2.052535         1.100702
 H         1.083006        -0.109575        -0.153076
 H        -2.699996         0.382269        -0.678899
 H        -2.308332         0.180736         1.183781
 H        -2.478364         2.471654        -1.993357
 H        -1.298142         3.490937        -1.128172
 H        -0.989885         0.428040        -1.935594
 H         0.269837         1.784839        -1.865059
 H        -1.636600         2.853185         3.226337
 H        -2.010262         1.145511         2.792059
 H        -0.143726         2.942119         1.096051
