19
Iteration:  3965charge 0 multiplicity 1
 O         0.270930        -0.369608         0.273234
 C        -0.597031         0.808122         0.143029
 C        -2.158933         0.478373         0.249636
 C        -2.151732         2.036728         0.275531
 C        -1.718654         2.541993        -1.019624
 C        -0.534190         1.540760        -1.188405
 O        -2.875484         2.733395         1.368632
 C        -1.692518         2.311045         2.238479
 C        -0.830696         2.118532         1.052265
 H        -0.031507        -0.893308         1.039829
 H        -2.531700         0.065077        -0.676063
 H        -2.551231         0.034671         1.208729
 H        -2.460989         2.427533        -1.889926
 H        -1.307817         3.499501        -0.990058
 H        -0.784664         0.787368        -1.986117
 H         0.365247         2.077688        -1.452744
 H        -1.418952         3.347505         2.729376
 H        -1.885196         1.476335         2.948719
 H        -0.096751         2.972310         0.920958
