19
Iteration:  1355
 O         0.444793        -0.236310         0.474388
 C        -0.607432         0.733002         0.183006
 C        -2.250613         0.572975         0.334714
 C        -2.114921         2.060064         0.307621
 C        -1.891003         2.412918        -1.140902
 C        -0.633243         1.351975        -1.354197
 O        -2.809632         2.947417         1.311221
 C        -1.776298         2.295509         2.223895
 C        -0.701151         2.011891         1.098839
 H         0.606385        -0.722043        -0.345321
 H        -2.812309         0.047571        -0.484498
 H        -2.425078        -0.039869         1.220828
 H        -2.780643         2.440128        -1.817948
 H        -1.461296         3.454388        -1.261474
 H        -0.776807         0.470238        -2.095236
 H         0.235728         1.967753        -1.546476
 H        -1.574943         3.137419         3.014473
 H        -2.131340         1.482346         2.794658
 H         0.078144         2.776907         1.259016
