19
Iteration:   378
 O         0.395169        -0.118543         0.605487
 C        -0.668396         0.771389         0.176364
 C        -2.223223         0.609312         0.459554
 C        -2.127187         2.149228         0.292171
 C        -1.904974         2.320652        -1.165551
 C        -0.830442         1.197881        -1.340037
 O        -2.799677         2.728388         1.362564
 C        -1.430235         2.392541         2.133502
 C        -0.769825         2.124008         0.888685
 H         0.798395        -0.502525        -0.175938
 H        -3.110067         0.103733        -0.107534
 H        -2.467454         0.354843         1.511861
 H        -2.833907         2.207860        -1.790713
 H        -1.469006         3.251076        -1.467164
 H        -1.140498         0.394242        -2.068920
 H         0.133087         1.518686        -1.695631
 H        -1.123064         3.294304         2.612713
 H        -1.512691         1.667582         2.960593
 H         0.069889         2.822899         0.544737
