19
Iteration:  2631
 O         0.405363        -0.198835         0.374519
 C        -0.689942         0.709788         0.146916
 C        -2.227807         0.513168         0.406696
 C        -2.143264         2.073968         0.297107
 C        -1.867108         2.425025        -1.125600
 C        -0.768154         1.338039        -1.252982
 O        -2.716237         2.817255         1.339408
 C        -1.585358         2.489061         2.236394
 C        -0.736661         1.993064         1.000643
 H         0.332393        -1.029166        -0.132883
 H        -2.981401         0.005947        -0.216975
 H        -2.492298         0.123259         1.449869
 H        -2.809132         2.182435        -1.698369
 H        -1.738373         3.523409        -1.247982
 H        -0.818676         0.682842        -2.156872
 H         0.076982         1.964490        -1.377384
 H        -1.421842         3.475782         2.626579
 H        -1.650096         1.720311         3.067685
 H         0.123603         2.600151         0.892541
