19
Iteration:  3188charge 0 multiplicity 1
 O         0.176642        -0.319171         0.403137
 C        -0.666469         0.825540         0.158469
 C        -2.172858         0.602467         0.326707
 C        -2.105229         2.106813         0.236992
 C        -1.769501         2.500456        -1.247295
 C        -0.476939         1.500010        -1.250201
 O        -2.835420         2.673824         1.489603
 C        -1.713199         2.270617         2.270981
 C        -0.763227         2.038759         1.013794
 H         0.609411        -0.619104        -0.429201
 H        -2.858470         0.043472        -0.319718
 H        -2.336654         0.369928         1.441458
 H        -2.486909         2.020031        -1.858142
 H        -1.636430         3.583877        -1.359133
 H        -0.698675         0.857623        -2.082976
 H         0.482780         2.091267        -1.387797
 H        -1.211988         3.163913         2.667938
 H        -1.951099         1.480566         3.089852
 H         0.050586         2.839550         0.985521
