19
Iteration:  4758charge 0 multiplicity 1
 O         0.378950        -0.184172         0.510125
 C        -0.710754         0.700211         0.192217
 C        -2.226506         0.580110         0.117613
 C        -2.132423         2.294078         0.269926
 C        -1.699774         2.609722        -1.148146
 C        -0.570231         1.453954        -1.223692
 O        -2.840091         2.673334         1.382852
 C        -1.706034         2.166743         2.286009
 C        -0.802664         1.984517         1.033220
 H         0.088687        -1.104807         0.414128
 H        -2.789154         0.007868        -0.638386
 H        -2.595134         0.109343         0.984090
 H        -2.457850         2.288589        -1.862165
 H        -1.400875         3.649040        -1.286491
 H        -0.902247         0.779376        -2.091493
 H         0.380765         1.792427        -1.555353
 H        -1.382493         2.951815         2.896832
 H        -1.966642         1.224501         2.785991
 H         0.006721         2.657149         0.885959
