19
Iteration:  4170
 O         0.277963        -0.232716         0.269927
 C        -0.716965         0.804643         0.199344
 C        -2.266463         0.596146         0.161240
 C        -2.118436         2.093820         0.313921
 C        -1.693653         2.525264        -1.141911
 C        -0.541842         1.372489        -1.141860
 O        -2.812031         2.742531         1.390767
 C        -1.645198         2.201414         2.310170
 C        -0.808198         2.084878         1.022926
 H         0.505892        -0.255073         1.211545
 H        -2.592373         0.065851        -0.733915
 H        -2.637426        -0.080281         1.014701
 H        -2.513978         2.263838        -1.874119
 H        -1.304769         3.501869        -1.283489
 H        -0.760950         0.669410        -1.954055
 H         0.414467         1.878076        -1.243354
 H        -1.474322         3.040541         3.053259
 H        -2.052411         1.329260         2.842278
 H        -0.131493         2.932872         0.843678
