19
Iteration:  2799
 O         0.175366        -0.357254         0.522953
 C        -0.646244         0.770484         0.053671
 C        -2.100068         0.504223         0.330091
 C        -2.161869         2.142956         0.284757
 C        -1.961127         2.375474        -1.177209
 C        -0.572453         1.428226        -1.295581
 O        -2.741477         2.808673         1.488741
 C        -1.620886         2.413864         2.223124
 C        -0.755784         2.066953         0.938152
 H         1.057457        -0.314508         0.076647
 H        -2.594409         0.024825        -0.565921
 H        -2.308438         0.003902         1.265768
 H        -2.704785         1.987188        -1.897505
 H        -1.715102         3.420904        -1.267972
 H        -0.699698         0.787798        -2.117782
 H         0.319462         2.101795        -1.322269
 H        -1.128513         3.378767         2.619998
 H        -1.813801         1.670750         3.031324
 H        -0.121117         2.931522         0.853807
