19
Iteration:  1263
 O         0.261467        -0.314947         0.416384
 C        -0.651340         0.739574         0.241544
 C        -2.146181         0.535827         0.228127
 C        -2.116168         2.055932         0.272646
 C        -1.864746         2.394443        -1.214267
 C        -0.616137         1.456134        -1.216002
 O        -2.758642         2.805415         1.398281
 C        -1.729324         2.405929         2.250353
 C        -0.729262         2.075327         1.020315
 H         1.021765         0.109048         0.870959
 H        -2.683966        -0.009318        -0.555610
 H        -2.495676         0.009927         1.107417
 H        -2.656717         2.099322        -1.925401
 H        -1.659424         3.464954        -1.388706
 H        -0.882640         0.673167        -1.935477
 H         0.201227         2.024074        -1.701338
 H        -1.425934         3.206719         2.855815
 H        -1.852858         1.461312         2.984380
 H         0.044838         2.798790         0.801989
