19
Iteration:  1028charge 0 multiplicity 1
 O         0.260459        -0.370720         0.395920
 C        -0.560445         0.826531         0.232266
 C        -2.120813         0.561599         0.401718
 C        -2.137632         2.043224         0.240454
 C        -1.912993         2.308516        -1.171958
 C        -0.540200         1.593120        -1.270290
 O        -2.836158         2.731116         1.364112
 C        -1.701298         2.448180         2.156127
 C        -0.705324         2.072746         1.038234
 H        -0.329126        -1.045209         0.751185
 H        -2.489475         0.092813        -0.512668
 H        -2.367127         0.108501         1.357833
 H        -2.716326         1.975375        -1.898985
 H        -1.892132         3.361681        -1.230982
 H        -0.527569         0.871986        -2.090342
 H         0.193517         2.349538        -1.318124
 H        -1.385025         3.456341         2.676256
 H        -1.842323         1.616014         2.857403
 H         0.133831         2.842665         0.867323
