19
Iteration:  3607
 O         0.340865        -0.340745         0.359928
 C        -0.664966         0.675488         0.215211
 C        -2.199151         0.481894         0.145039
 C        -2.076538         2.169410         0.254868
 C        -1.829351         2.581126        -1.106416
 C        -0.582722         1.538840        -1.263835
 O        -2.833451         2.808564         1.394466
 C        -1.683438         2.278013         2.291230
 C        -0.849004         1.921187         1.104360
 H         1.160889         0.088524         0.668962
 H        -2.736493         0.084874        -0.777787
 H        -2.864274         0.099565         0.968295
 H        -2.766150         2.460844        -1.796685
 H        -1.505669         3.618954        -1.235826
 H        -0.460450         0.686847        -2.086200
 H         0.397368         1.937481        -1.194477
 H        -1.297107         3.247203         2.752291
 H        -1.998067         1.488065         3.016595
 H        -0.010796         2.690215         1.067491
