19
Iteration:   694
 O         0.375915        -0.163332         0.471441
 C        -0.621539         0.817286         0.191434
 C        -2.130900         0.478510         0.381029
 C        -2.182469         2.079510         0.303157
 C        -1.871298         2.260462        -1.194647
 C        -0.676456         1.239496        -1.323981
 O        -2.753898         2.954384         1.471006
 C        -1.596753         2.393429         2.167681
 C        -0.854805         2.130862         0.881049
 H        -0.074485        -0.923632         0.837190
 H        -2.669831        -0.162870        -0.366056
 H        -2.353776         0.039050         1.391519
 H        -2.741910         2.013148        -1.803324
 H        -1.528750         3.287074        -1.484144
 H        -0.984663         0.507231        -2.069348
 H         0.250183         1.826617        -1.522834
 H        -1.123648         3.205726         2.820249
 H        -1.872726         1.485399         2.823707
 H        -0.215808         2.930215         0.567804
