19
Iteration:  4781charge 0 multiplicity 1
 O         0.388906        -0.150621         0.291430
 C        -0.654245         0.766402         0.167400
 C        -2.242986         0.564318         0.261329
 C        -2.125455         2.145119         0.258694
 C        -1.626923         2.562478        -1.159027
 C        -0.586314         1.361939        -1.218705
 O        -2.866837         2.721512         1.394198
 C        -1.810951         2.216735         2.265560
 C        -0.792643         2.018141         1.161366
 H        -0.080139        -0.956467         0.534088
 H        -2.880990         0.122859        -0.501321
 H        -2.821218         0.245660         1.130518
 H        -2.146161         2.564077        -2.119617
 H        -1.048302         3.428989        -0.896166
 H        -0.626261         0.672369        -2.146560
 H         0.357621         1.778088        -1.406795
 H        -1.467818         2.956325         2.975973
 H        -2.078232         1.249422         2.708610
 H        -0.065899         2.834147         1.049654
