19
Iteration:  3488charge 0 multiplicity 1
 O         0.305731        -0.312824         0.446445
 C        -0.628745         0.771645         0.150773
 C        -2.192387         0.543886         0.253066
 C        -2.223319         2.114506         0.316400
 C        -1.705559         2.583637        -1.133359
 C        -0.564854         1.454534        -1.351812
 O        -2.788792         2.834082         1.433061
 C        -1.744417         2.163017         2.283396
 C        -0.843472         2.003415         0.986538
 H         1.255286        -0.152335         0.305644
 H        -2.711731        -0.007219        -0.681311
 H        -2.561958         0.120031         1.233975
 H        -2.555413         2.631731        -1.859433
 H        -1.375919         3.612358        -1.033183
 H        -0.780718         0.627220        -2.180355
 H         0.448904         1.901748        -1.547909
 H        -1.492532         2.902139         3.130550
 H        -2.125893         1.236384         2.822967
 H        -0.122472         2.817148         0.819870
