19
Iteration:  4486
 O         0.287969        -0.288381         0.427540
 C        -0.704838         0.737914         0.228168
 C        -2.194262         0.483759         0.231819
 C        -2.130702         2.180200         0.296812
 C        -1.823217         2.527606        -1.214299
 C        -0.547742         1.564339        -1.223427
 O        -2.789086         2.779844         1.393363
 C        -1.645579         2.161800         2.207868
 C        -0.773563         2.015948         1.011530
 H         0.225477        -0.591505         1.367786
 H        -2.708094         0.015229        -0.648204
 H        -2.597153         0.136414         1.139373
 H        -2.623649         2.484813        -2.023039
 H        -1.648408         3.625090        -1.283888
 H        -0.664306         1.110700        -2.259816
 H         0.428233         1.983147        -1.327279
 H        -1.359500         3.005586         2.868326
 H        -1.901530         1.264976         2.774558
 H         0.125852         2.687676         0.934417
