19
Iteration:   586charge 0 multiplicity 1
 O         0.368190        -0.292845         0.403637
 C        -0.649696         0.695713         0.207733
 C        -2.146109         0.527607         0.514513
 C        -2.025722         2.089208         0.285069
 C        -2.012506         2.325223        -1.135477
 C        -0.808725         1.334142        -1.277377
 O        -2.691691         2.808728         1.199791
 C        -1.696646         2.556650         2.191184
 C        -0.671678         2.101782         1.107223
 H         1.055271         0.131005        -0.155067
 H        -2.752565        -0.084028        -0.214982
 H        -2.486848         0.365540         1.590758
 H        -2.938269         2.039875        -1.635353
 H        -1.720797         3.357728        -1.490946
 H        -1.043412         0.493692        -1.898627
 H         0.090764         1.671918        -1.719696
 H        -1.488920         3.367158         2.806273
 H        -2.057733         1.757657         2.848977
 H         0.078164         2.725386         0.639939
