19
Iteration:    23charge 0 multiplicity 1
 O         0.273662        -0.257243         0.277362
 C        -0.678057         0.754878         0.276064
 C        -2.182121         0.420436         0.438606
 C        -2.242231         1.988403         0.181287
 C        -1.832123         2.434328        -1.294660
 C        -0.625313         1.475497        -1.160179
 O        -2.883413         2.605138         1.441862
 C        -1.528198         2.644406         2.151203
 C        -0.692190         2.078621         1.022241
 H         0.601788        -0.383122         1.205411
 H        -2.589422        -0.305661        -0.252632
 H        -2.489492         0.243230         1.478085
 H        -2.600480         2.246171        -2.007756
 H        -1.577149         3.505938        -1.318667
 H        -0.545074         0.703927        -1.886130
 H         0.339448         2.023399        -1.158360
 H        -1.152803         3.634438         2.281411
 H        -1.628629         2.112628         3.113237
 H         0.170424         2.730529         0.794910
