19
Iteration:  3407
 O         0.240394        -0.340769         0.299435
 C        -0.680177         0.744581         0.199312
 C        -2.171063         0.445352         0.251268
 C        -2.187689         1.979561         0.294318
 C        -1.772334         2.534589        -1.117557
 C        -0.534502         1.592058        -1.170068
 O        -2.769151         2.809755         1.321663
 C        -1.697883         2.311493         2.280295
 C        -0.798534         2.021719         1.108363
 H         1.048748         0.067399        -0.093223
 H        -2.664033         0.037525        -0.597601
 H        -2.703833         0.021105         1.108424
 H        -2.521445         2.574847        -1.906039
 H        -1.583881         3.612203        -0.892304
 H        -0.625869         0.838580        -1.938414
 H         0.500497         1.976068        -1.254816
 H        -1.267999         3.124828         2.820248
 H        -2.228413         1.591154         2.886018
 H         0.027348         2.738212         0.917791
