19
Iteration:   405
 O         0.259342        -0.179287         0.625534
 C        -0.642156         0.764990         0.191396
 C        -2.058470         0.428451         0.442592
 C        -2.250269         2.001369         0.275476
 C        -1.978086         2.368531        -1.276781
 C        -0.763071         1.310448        -1.326755
 O        -2.739256         2.829803         1.416969
 C        -1.383738         2.531141         2.176731
 C        -0.817319         2.137543         0.858506
 H         0.384287        -0.866928        -0.037607
 H        -2.605850        -0.090808        -0.280361
 H        -2.296894        -0.020807         1.396760
 H        -2.715841         2.185556        -2.049847
 H        -1.602358         3.443928        -1.280524
 H        -0.957844         0.548308        -2.074613
 H         0.271977         1.779656        -1.415503
 H        -1.048775         3.349310         2.887529
 H        -1.497260         1.663839         2.856161
 H        -0.118741         2.743648         0.373799
