19
Iteration:  4658
 O         0.413693        -0.260168         0.380194
 C        -0.641927         0.730204         0.163455
 C        -2.167721         0.487908         0.255090
 C        -2.147662         2.118387         0.305437
 C        -1.729957         2.544804        -1.033270
 C        -0.659680         1.411731        -1.265027
 O        -2.788194         2.815176         1.310252
 C        -1.827824         2.351730         2.273000
 C        -0.837344         1.968341         1.084466
 H         0.575740        -0.516669        -0.541039
 H        -2.637499         0.193870        -0.744617
 H        -2.604352         0.075553         1.142252
 H        -2.527234         2.644168        -1.781294
 H        -1.063026         3.433733        -0.871955
 H        -0.924559         0.669290        -2.058751
 H         0.397807         1.777505        -1.393831
 H        -1.477057         3.024093         3.012377
 H        -2.176635         1.468122         2.875490
 H        -0.005675         2.640414         1.058782
