19
Iteration:  1325charge 0 multiplicity 1
 O         0.303168        -0.248798         0.360595
 C        -0.678563         0.698157         0.247296
 C        -2.204336         0.490762         0.370112
 C        -2.043135         2.106512         0.295654
 C        -1.752307         2.439687        -1.249179
 C        -0.618744         1.366615        -1.197119
 O        -2.842571         2.751634         1.339622
 C        -1.714691         2.375372         2.270129
 C        -0.825014         2.161709         1.046720
 H         0.525534        -0.301726        -0.591705
 H        -2.571085        -0.123405        -0.462765
 H        -2.357815         0.167167         1.383155
 H        -2.615044         2.375162        -1.858716
 H        -1.296456         3.477903        -1.378199
 H        -0.742758         0.567437        -1.910989
 H         0.393146         1.909998        -1.348379
 H        -1.432634         3.316299         2.776958
 H        -1.883224         1.647490         3.050622
 H         0.066205         2.895515         0.876815
