19
Iteration:  2569
 O         0.271146        -0.227204         0.445433
 C        -0.619337         0.771742         0.174616
 C        -2.157287         0.611911         0.416511
 C        -2.137540         2.132052         0.268320
 C        -1.911301         2.329690        -1.174529
 C        -0.706449         1.308870        -1.314770
 O        -2.795836         2.801430         1.461117
 C        -1.547921         2.325724         2.195040
 C        -0.715861         2.172810         0.969987
 H         0.394981        -0.687792        -0.404820
 H        -2.689974         0.022283        -0.447124
 H        -2.604663         0.369226         1.416737
 H        -2.797511         1.983298        -1.777363
 H        -1.706673         3.373036        -1.468140
 H        -0.829637         0.484692        -1.990839
 H         0.397539         1.720263        -1.478937
 H        -1.364558         3.233908         2.857314
 H        -1.691195         1.407999         2.810735
 H         0.254349         2.725116         0.704430
