19
Iteration:  3796charge 0 multiplicity 1
 O         0.230600        -0.301251         0.391308
 C        -0.687643         0.709492         0.178369
 C        -2.212487         0.597965         0.246088
 C        -2.178346         2.047113         0.235825
 C        -1.806310         2.528857        -1.052952
 C        -0.503684         1.566398        -1.182279
 O        -2.798922         2.771271         1.363352
 C        -1.627786         2.214466         2.227360
 C        -0.774807         2.007252         0.972468
 H         1.005085         0.147519         0.786079
 H        -2.848360         0.029307        -0.509825
 H        -2.557274         0.066690         1.139995
 H        -2.458185         2.171908        -1.816546
 H        -1.727046         3.687915        -1.163861
 H        -0.586063         0.944342        -2.020415
 H         0.471402         2.059369        -1.212281
 H        -1.286848         2.993403         2.855168
 H        -2.081498         1.307634         2.690636
 H         0.068834         2.654683         0.815128
