19
Iteration:  1020charge 0 multiplicity 1
 O         0.260281        -0.320933         0.398547
 C        -0.586623         0.755121         0.194863
 C        -2.070765         0.544461         0.443982
 C        -2.155686         2.030818         0.323215
 C        -1.905088         2.382245        -1.187359
 C        -0.523682         1.585765        -1.241706
 O        -2.875568         2.787625         1.328968
 C        -1.672198         2.455048         2.117863
 C        -0.752461         2.000902         1.023581
 H        -0.270561        -1.093042         0.587559
 H        -2.390529        -0.153086        -0.340159
 H        -2.281295         0.061348         1.362305
 H        -2.765018         1.935849        -1.760583
 H        -1.938230         3.506551        -1.351166
 H        -0.412046         0.927039        -2.054246
 H         0.382382         2.323187        -1.254246
 H        -1.347223         3.274639         2.786816
 H        -1.762229         1.623317         2.837720
 H         0.046003         2.722948         0.590398
