19
Iteration:  3797
 O         0.220336        -0.294793         0.389321
 C        -0.681827         0.716340         0.168275
 C        -2.211922         0.599768         0.246195
 C        -2.173251         2.043507         0.235864
 C        -1.812661         2.524585        -1.048257
 C        -0.504998         1.565309        -1.186767
 O        -2.796021         2.764347         1.355201
 C        -1.624300         2.216774         2.237672
 C        -0.783946         2.006658         0.979021
 H         1.001134         0.124428         0.803212
 H        -2.856190         0.027596        -0.510196
 H        -2.540283         0.081070         1.144419
 H        -2.405505         2.168548        -1.818960
 H        -1.709963         3.650857        -1.142072
 H        -0.560971         0.966266        -2.014168
 H         0.486339         2.053023        -1.164921
 H        -1.251309         3.026608         2.843635
 H        -2.073151         1.321909         2.714733
 H         0.048727         2.633203         0.784445
