19
Iteration:  2836
 O         0.388398        -0.170304         0.420151
 C        -0.700104         0.715790         0.198455
 C        -2.300955         0.593518         0.368995
 C        -2.107438         2.078608         0.301635
 C        -1.873874         2.426330        -1.152888
 C        -0.693603         1.347328        -1.229392
 O        -2.701507         2.756589         1.379887
 C        -1.672562         2.349488         2.193177
 C        -0.709824         2.102154         0.984807
 H         0.271952        -0.948123        -0.183613
 H        -2.761179         0.107983        -0.471312
 H        -2.760992         0.114337         1.297690
 H        -2.564464         2.422362        -1.972360
 H        -1.427433         3.426899        -1.186906
 H        -0.792872         0.571495        -2.090581
 H         0.283448         1.722126        -1.419839
 H        -1.410723         3.167762         2.839840
 H        -1.816784         1.517948         2.939052
 H         0.113131         2.809494         0.616246
