19
Iteration:  1841
 O         0.226375        -0.295385         0.326048
 C        -0.622903         0.795972         0.191656
 C        -2.174385         0.482524         0.423274
 C        -2.169621         2.113310         0.322965
 C        -1.865085         2.365013        -1.137673
 C        -0.607995         1.377173        -1.239852
 O        -2.766420         2.889730         1.351305
 C        -1.624589         2.432264         2.144473
 C        -0.785290         1.984419         1.034675
 H         1.093373        -0.058127         0.715993
 H        -2.637569         0.174101        -0.481132
 H        -2.425496        -0.133358         1.324703
 H        -2.671973         2.008463        -1.828689
 H        -1.533239         3.289865        -1.432182
 H        -0.670163         0.633151        -2.053180
 H         0.312041         1.917318        -1.285238
 H        -1.228257         3.241229         2.720731
 H        -1.901170         1.670657         2.846340
 H        -0.085631         2.786285         0.897822
