19
Iteration:  4339
 O         0.180784        -0.223683         0.401563
 C        -0.660918         0.763535         0.068441
 C        -2.254396         0.665152         0.247885
 C        -2.125003         2.192148         0.283617
 C        -1.714554         2.513774        -1.144264
 C        -0.520147         1.401168        -1.256645
 O        -2.846126         2.617368         1.453038
 C        -1.647806         2.217754         2.296062
 C        -0.729237         2.023526         1.002643
 H         0.815494        -0.151917         1.139262
 H        -2.743067         0.267764        -0.667980
 H        -2.729909         0.252536         1.145914
 H        -2.561203         2.316192        -1.825187
 H        -1.140082         3.501228        -1.502836
 H        -0.798227         0.763358        -2.029441
 H         0.521629         1.758465        -1.235638
 H        -1.461174         3.155247         2.834673
 H        -1.952864         1.297561         2.844565
 H        -0.066894         2.856697         0.789369
