19
Iteration:   387
 O         0.344255        -0.128150         0.644325
 C        -0.707438         0.749008         0.187440
 C        -2.232332         0.501058         0.507937
 C        -2.174321         2.113237         0.251010
 C        -1.907002         2.386473        -1.202646
 C        -0.769612         1.260436        -1.328652
 O        -2.720338         2.729948         1.445323
 C        -1.502804         2.396597         2.073227
 C        -0.703994         2.155023         0.785448
 H         0.694312        -0.536520        -0.151628
 H        -2.876009        -0.304476        -0.112220
 H        -2.416800         0.487179         1.591581
 H        -2.847168         2.197829        -1.867353
 H        -1.472243         3.343999        -1.320140
 H        -1.193010         0.433019        -1.904244
 H         0.193201         1.664037        -1.667617
 H        -1.093548         3.343649         2.509405
 H        -1.540170         1.598603         2.819983
 H        -0.040061         3.050998         0.532827
