19
Iteration:   249
 O         0.366613        -0.073180         0.531298
 C        -0.688936         0.755366         0.126681
 C        -2.154192         0.481567         0.503289
 C        -2.196374         2.101462         0.239443
 C        -1.921251         2.425769        -1.229058
 C        -0.765900         1.251420        -1.344212
 O        -2.731213         2.740541         1.392236
 C        -1.499562         2.374529         2.170401
 C        -0.767278         2.112129         0.876569
 H         0.064932        -0.654101         1.254406
 H        -2.738465        -0.292178        -0.006328
 H        -2.303586         0.336947         1.585764
 H        -2.771179         2.331025        -1.913306
 H        -1.503531         3.479323        -1.240628
 H        -1.090647         0.439864        -2.099133
 H         0.177558         1.701111        -1.597152
 H        -1.112277         3.294978         2.672639
 H        -1.672067         1.564000         2.957883
 H         0.127688         2.746747         0.626897
