19
Iteration:  1531
 O         0.252147        -0.305497         0.580223
 C        -0.586584         0.763384         0.189236
 C        -2.139457         0.517546         0.351488
 C        -2.128845         2.083332         0.220890
 C        -1.816972         2.477187        -1.194415
 C        -0.636733         1.420366        -1.306217
 O        -2.848034         2.734385         1.418221
 C        -1.616561         2.389394         2.196219
 C        -0.809395         2.108128         0.954111
 H         0.622585        -0.687693        -0.223168
 H        -2.679508        -0.078767        -0.414611
 H        -2.476294         0.350077         1.398330
 H        -2.668918         2.308434        -1.796239
 H        -1.361691         3.550588        -1.242350
 H        -0.982459         0.628020        -1.989651
 H         0.282973         1.888142        -1.817406
 H        -1.162234         3.304112         2.875661
 H        -1.684865         1.440239         2.699129
 H        -0.125458         2.966369         0.749604
