19
Iteration:  1890charge 0 multiplicity 1
 O         0.287652        -0.313932         0.309946
 C        -0.654334         0.799446         0.229121
 C        -2.203185         0.506130         0.357379
 C        -2.085603         2.108331         0.264069
 C        -1.865885         2.338267        -1.147287
 C        -0.647940         1.355165        -1.246889
 O        -2.796290         2.947608         1.372744
 C        -1.673902         2.391286         2.198201
 C        -0.714128         2.017252         1.044552
 H         0.943546        -0.022931         0.941727
 H        -2.583276        -0.063024        -0.535545
 H        -2.410080         0.107807         1.325614
 H        -2.568112         1.888418        -1.822830
 H        -1.620111         3.462357        -1.295576
 H        -1.065702         0.511594        -1.812191
 H         0.247307         1.827601        -1.746519
 H        -1.214851         3.153608         2.897583
 H        -2.156067         1.670101         2.988437
 H         0.122419         2.784385         0.880835
