19
Iteration:   765
 O         0.233773        -0.343883         0.382229
 C        -0.594647         0.753684         0.203946
 C        -2.144486         0.416519         0.417498
 C        -2.174972         2.028649         0.318176
 C        -1.823845         2.301052        -1.155524
 C        -0.624040         1.404146        -1.298631
 O        -2.814603         2.843501         1.401607
 C        -1.616111         2.580923         2.193386
 C        -0.789524         2.164508         0.977229
 H         1.128812        -0.005879         0.260833
 H        -2.588320        -0.258919        -0.316222
 H        -2.489841         0.063350         1.393726
 H        -2.624753         1.928990        -1.870638
 H        -1.752053         3.368128        -1.356948
 H        -0.807642         0.499633        -1.964659
 H         0.333983         1.885205        -1.575068
 H        -1.252015         3.523419         2.644494
 H        -1.849624         1.792929         2.929985
 H        -0.179272         3.058976         0.583651
