19
Iteration:  3968
 O         0.254506        -0.347544         0.259049
 C        -0.598174         0.788416         0.170136
 C        -2.149913         0.491298         0.227870
 C        -2.169971         2.037533         0.291834
 C        -1.739724         2.540652        -1.023325
 C        -0.553489         1.531076        -1.173411
 O        -2.846058         2.723527         1.353994
 C        -1.720788         2.341132         2.246035
 C        -0.809245         2.086496         1.045431
 H         0.061418        -0.829713         1.083132
 H        -2.434140         0.064114        -0.720928
 H        -2.469012         0.080754         1.161380
 H        -2.435457         2.487602        -1.859431
 H        -1.249854         3.495173        -1.007131
 H        -0.714044         0.702500        -1.967948
 H         0.402175         2.112111        -1.441208
 H        -1.379078         3.253771         2.738180
 H        -1.855360         1.478463         2.977330
 H        -0.150817         2.982129         0.945773
