19
Iteration:  4884charge 0 multiplicity 1
 O         0.229671        -0.319609         0.497859
 C        -0.590206         0.802323         0.212227
 C        -2.174461         0.560325         0.147892
 C        -2.107756         2.175224         0.258241
 C        -1.703025         2.628068        -1.082789
 C        -0.612242         1.467123        -1.322118
 O        -2.807732         2.677216         1.350672
 C        -1.808618         2.132361         2.227068
 C        -0.792272         2.069895         1.118394
 H         1.173021        -0.038469         0.627454
 H        -2.483932         0.038288        -0.727735
 H        -2.561721         0.049564         1.015275
 H        -2.555602         2.635945        -1.764987
 H        -1.242210         3.602606        -1.247309
 H        -1.044041         0.876893        -2.052560
 H         0.419683         1.812698        -1.582987
 H        -1.490375         2.905516         2.966009
 H        -2.076286         1.146679         2.639786
 H        -0.013505         2.865859         0.987136
