19
Iteration:  2633charge 0 multiplicity 1
 O         0.390423        -0.207426         0.363912
 C        -0.689080         0.716237         0.157613
 C        -2.211306         0.517715         0.402685
 C        -2.144329         2.064370         0.279369
 C        -1.887578         2.423083        -1.122717
 C        -0.754703         1.329012        -1.233274
 O        -2.711753         2.807977         1.353284
 C        -1.590360         2.493494         2.232768
 C        -0.734800         2.009033         0.988725
 H         0.306560        -1.058057        -0.121743
 H        -2.986205        -0.043449        -0.289486
 H        -2.500369         0.181003         1.449228
 H        -2.792007         2.167719        -1.786129
 H        -1.721272         3.521659        -1.253315
 H        -0.823140         0.708495        -2.108115
 H         0.118764         2.019129        -1.366785
 H        -1.352270         3.514838         2.680327
 H        -1.652635         1.732883         3.062464
 H         0.116584         2.659796         0.935582
