19
Iteration:  3345charge 0 multiplicity 1
 O         0.163577        -0.271152         0.379355
 C        -0.697826         0.793443         0.172349
 C        -2.117298         0.499291         0.224151
 C        -2.082432         2.163313         0.284522
 C        -1.709149         2.577289        -1.164257
 C        -0.601512         1.429608        -1.192950
 O        -2.793436         2.731814         1.435353
 C        -1.737273         2.186675         2.240374
 C        -0.789537         2.072170         1.013929
 H         1.085313        -0.105269         0.079564
 H        -2.498440         0.014339        -0.708680
 H        -2.477873         0.232282         1.181937
 H        -2.511118         2.361823        -1.893570
 H        -1.422551         3.554556        -1.132098
 H        -0.812214         0.620299        -1.979961
 H         0.359926         1.883444        -1.359192
 H        -1.333866         2.897681         3.033767
 H        -1.994140         1.280636         2.830402
 H        -0.085943         2.872786         1.115969
