19
Iteration:  1852charge 0 multiplicity 1
 O         0.312069        -0.319045         0.314643
 C        -0.667259         0.712057         0.214752
 C        -2.238196         0.493220         0.420875
 C        -2.163336         2.044092         0.309375
 C        -1.888083         2.353776        -1.170948
 C        -0.615458         1.494164        -1.261399
 O        -2.666828         2.953613         1.275992
 C        -1.735946         2.376802         2.240925
 C        -0.710305         2.003352         1.053913
 H         1.080689         0.090929         0.786824
 H        -2.859313        -0.152034        -0.176040
 H        -2.431771         0.285171         1.497948
 H        -2.696578         1.977352        -1.846767
 H        -1.829487         3.382971        -1.274098
 H        -0.821328         0.651973        -1.932789
 H         0.324137         1.935771        -1.520740
 H        -1.335021         3.226563         2.738784
 H        -2.143365         1.616384         2.862157
 H         0.033238         2.748422         0.856396
