19
Iteration:  2469
 O         0.399716        -0.180571         0.351682
 C        -0.660245         0.793091         0.214927
 C        -2.127568         0.664371         0.415482
 C        -2.120970         2.183282         0.320450
 C        -1.841321         2.378421        -1.219745
 C        -0.788667         1.256674        -1.320022
 O        -2.790265         2.822385         1.354358
 C        -1.610303         2.240583         2.288600
 C        -0.718905         2.072968         1.004428
 H        -0.192159        -0.878083         0.664864
 H        -2.768124         0.064590        -0.330086
 H        -2.508058         0.206908         1.412492
 H        -2.767903         2.156609        -1.844754
 H        -1.731854         3.431275        -1.490264
 H        -1.223991         0.500581        -1.992432
 H         0.235850         1.506721        -1.689275
 H        -1.269011         3.093513         2.861821
 H        -1.780358         1.426256         3.027331
 H         0.100316         2.806389         0.771909
