19
Iteration:   395
 O         0.280369        -0.131400         0.636369
 C        -0.699425         0.743912         0.205035
 C        -2.167692         0.471526         0.524478
 C        -2.202348         2.025011         0.226807
 C        -1.939073         2.430435        -1.257285
 C        -0.761875         1.278868        -1.293868
 O        -2.705428         2.765886         1.478153
 C        -1.482791         2.473680         2.116721
 C        -0.716553         2.119844         0.756624
 H         0.649255        -0.697123        -0.045128
 H        -2.475659        -0.301299        -0.174630
 H        -2.382752         0.194999         1.562746
 H        -2.646095         2.248054        -2.108327
 H        -1.646353         3.509570        -1.326663
 H        -0.996843         0.495925        -2.008913
 H         0.180230         1.725939        -1.734608
 H        -1.106423         3.349700         2.767546
 H        -1.630888         1.568145         2.706887
 H        -0.089172         2.886678         0.340301
