19
Iteration:  3586
 O         0.167324        -0.423689         0.287008
 C        -0.631612         0.800687         0.126837
 C        -2.127860         0.535899         0.278913
 C        -2.141237         2.051766         0.294695
 C        -1.797725         2.512830        -1.083500
 C        -0.532623         1.614404        -1.130287
 O        -2.828069         2.722872         1.361287
 C        -1.759490         2.356784         2.276614
 C        -0.716319         2.030301         1.030492
 H         1.085706        -0.162848         0.495562
 H        -2.620116        -0.067093        -0.587014
 H        -2.456338         0.024121         1.242670
 H        -2.405496         2.165040        -1.972726
 H        -1.464273         3.512877        -1.327694
 H        -0.534076         0.948161        -2.119038
 H         0.406784         2.179595        -1.150374
 H        -1.498546         3.215986         2.996247
 H        -2.126489         1.406010         2.750492
 H         0.076653         2.798532         0.911869
