19
Iteration:  3911
 O         0.309581        -0.215348         0.416305
 C        -0.712228         0.716591         0.236686
 C        -2.240110         0.560047         0.173486
 C        -2.104388         2.087627         0.333209
 C        -1.825314         2.530465        -1.096302
 C        -0.558981         1.512808        -1.224498
 O        -2.814182         2.820025         1.336030
 C        -1.667454         2.234292         2.262732
 C        -0.710250         1.981871         1.108586
 H         0.724863        -0.675934        -0.334157
 H        -2.491271         0.161054        -0.770195
 H        -2.870661        -0.061531         0.816777
 H        -2.588832         2.060587        -1.790938
 H        -1.598882         3.429422        -1.453882
 H        -0.831118         0.631761        -1.929298
 H         0.415356         1.979589        -1.471631
 H        -1.514087         2.983222         3.133943
 H        -1.992810         1.240104         2.587929
 H         0.065632         2.747131         0.798392
