19
Iteration:  3584charge 0 multiplicity 1
 O         0.143229        -0.415439         0.279459
 C        -0.612517         0.814053         0.133489
 C        -2.125803         0.533890         0.292613
 C        -2.144218         2.037206         0.285388
 C        -1.788557         2.492530        -1.074498
 C        -0.521959         1.628223        -1.163908
 O        -2.833392         2.724098         1.358906
 C        -1.757313         2.348001         2.278390
 C        -0.718380         2.035522         1.046426
 H         1.077551        -0.210800         0.464493
 H        -2.629772        -0.023765        -0.507929
 H        -2.450008         0.077730         1.208524
 H        -2.438563         2.178297        -1.998280
 H        -1.484620         3.501960        -1.280812
 H        -0.476370         0.911108        -2.099491
 H         0.417647         2.121116        -1.129132
 H        -1.539134         3.200200         2.990290
 H        -2.074984         1.436618         2.779033
 H         0.074785         2.835348         0.921660
