19
Iteration:  1487charge 0 multiplicity 1
 O         0.447121        -0.179988         0.423249
 C        -0.703764         0.741311         0.224203
 C        -2.215158         0.488507         0.311109
 C        -2.148455         2.105709         0.303486
 C        -1.823040         2.318641        -1.251211
 C        -0.680396         1.389841        -1.278979
 O        -2.703200         2.941635         1.387651
 C        -1.729172         2.297356         2.226209
 C        -0.818280         2.011337         1.096143
 H         0.290070        -0.943076        -0.153321
 H        -2.648780        -0.052287        -0.561355
 H        -2.582905         0.345227         1.326484
 H        -2.537868         2.040200        -1.998177
 H        -1.544663         3.471688        -1.363338
 H        -0.720923         0.668873        -2.123826
 H         0.288626         2.005806        -1.404515
 H        -1.193987         3.143533         2.989200
 H        -2.246833         1.646646         2.889171
 H        -0.160089         2.906396         0.998554
