19
Iteration:  1892charge 0 multiplicity 1
 O         0.271114        -0.304875         0.310988
 C        -0.644681         0.804799         0.231673
 C        -2.204091         0.524543         0.345573
 C        -2.094923         2.084953         0.260334
 C        -1.856087         2.342848        -1.154593
 C        -0.641420         1.349953        -1.247675
 O        -2.799147         2.926691         1.374364
 C        -1.651611         2.410304         2.224238
 C        -0.725466         2.021824         1.042098
 H         0.939058        -0.043498         0.954791
 H        -2.556738        -0.044808        -0.502872
 H        -2.427827         0.136482         1.309499
 H        -2.550308         1.897232        -1.845608
 H        -1.628743         3.426964        -1.286114
 H        -1.084062         0.521746        -1.783351
 H         0.242975         1.773978        -1.736857
 H        -1.199750         3.136568         2.912735
 H        -2.094674         1.660873         2.871438
 H         0.044882         2.764445         0.855786
