19
Iteration:  1647
 O         0.371566        -0.196178         0.560732
 C        -0.726648         0.739855         0.198093
 C        -2.180155         0.528000         0.285923
 C        -2.081995         2.182191         0.240524
 C        -1.838062         2.463279        -1.187572
 C        -0.680193         1.370439        -1.314395
 O        -2.797911         2.707243         1.419157
 C        -1.607917         2.389281         2.219395
 C        -0.764032         2.048575         0.991761
 H         0.087492        -1.090735         0.250426
 H        -2.604467        -0.056970        -0.556087
 H        -2.706020         0.348817         1.222220
 H        -2.757079         2.072531        -1.827696
 H        -1.533258         3.438478        -1.554848
 H        -0.893641         0.818179        -2.297035
 H         0.301796         1.821221        -1.390158
 H        -1.154569         3.212226         2.725192
 H        -2.034479         1.559960         2.969849
 H         0.088486         2.690819         0.724835
