19
Iteration:  4803
 O         0.315724        -0.307107         0.198267
 C        -0.607838         0.740060         0.171744
 C        -2.077391         0.499835         0.259802
 C        -2.051474         2.057646         0.312353
 C        -1.691809         2.596237        -1.073601
 C        -0.530735         1.511680        -1.206137
 O        -2.881699         2.844585         1.338669
 C        -1.899492         2.294606         2.304387
 C        -0.853014         1.975674         1.103501
 H         0.156000        -0.823496         1.025925
 H        -2.511704        -0.026732        -0.580303
 H        -2.551319         0.029998         1.135400
 H        -2.533472         2.324352        -1.710359
 H        -1.302844         3.598604        -1.034747
 H        -0.750364         0.717266        -2.029587
 H         0.444465         1.746191        -1.512588
 H        -1.484830         3.112822         2.918866
 H        -2.332824         1.470286         2.871075
 H        -0.115400         2.792705         0.991116
