19
Iteration:  2448charge 0 multiplicity 1
 O         0.347256        -0.222830         0.396783
 C        -0.658592         0.728412         0.161208
 C        -2.189582         0.468135         0.294589
 C        -2.107545         2.071235         0.339452
 C        -1.959209         2.382462        -1.142785
 C        -0.693707         1.349299        -1.246398
 O        -2.723523         2.870503         1.444368
 C        -1.595491         2.416556         2.175653
 C        -0.728713         2.127439         0.930140
 H        -0.052705        -0.868977         1.035762
 H        -2.836285         0.070708        -0.515111
 H        -2.635441        -0.033744         1.217471
 H        -2.851704         2.381653        -1.811217
 H        -1.535881         3.367786        -1.349411
 H        -0.810891         0.504250        -1.939579
 H         0.225512         1.922080        -1.575282
 H        -1.149016         2.976202         2.987834
 H        -1.682111         1.423643         2.671739
 H        -0.030585         3.024526         0.815747
