19
Iteration:  3131
 O         0.323428        -0.297930         0.276051
 C        -0.690758         0.686313         0.129892
 C        -2.143649         0.436085         0.345914
 C        -2.129021         2.045487         0.274787
 C        -1.773521         2.547135        -1.111897
 C        -0.680915         1.492868        -1.252746
 O        -2.786811         2.876113         1.280887
 C        -1.697247         2.345626         2.331259
 C        -0.807471         1.926633         1.101515
 H         0.868800         0.113610         0.961308
 H        -2.893284        -0.070928        -0.370275
 H        -2.263676         0.086023         1.295717
 H        -2.538757         2.572769        -1.796768
 H        -1.476218         3.620716        -1.048970
 H        -0.757718         1.003718        -2.225696
 H         0.222196         2.083982        -1.343077
 H        -1.154711         3.022269         2.963560
 H        -2.175340         1.607105         2.985780
 H         0.070194         2.587279         0.971141
