19
Iteration:    30
 O         0.257076        -0.281915         0.277181
 C        -0.655912         0.716286         0.212113
 C        -2.208523         0.469858         0.392543
 C        -2.161536         1.966421         0.265595
 C        -1.809023         2.407017        -1.158598
 C        -0.559853         1.470366        -1.159449
 O        -2.879727         2.564791         1.469297
 C        -1.581107         2.724289         2.101233
 C        -0.730178         2.085392         0.994020
 H         0.642459        -0.317263         1.178863
 H        -2.785651        -0.109530        -0.358817
 H        -2.493774         0.368909         1.426680
 H        -2.688859         2.129458        -1.850241
 H        -1.630503         3.469177        -1.307690
 H        -0.555599         0.707861        -2.045657
 H         0.318436         2.070140        -1.235609
 H        -1.256286         3.831352         2.022800
 H        -1.678934         2.058613         2.965907
 H        -0.020906         2.821729         0.628688
