19
Iteration:  4481charge 0 multiplicity 1
 O         0.278867        -0.310995         0.457038
 C        -0.697711         0.741649         0.194486
 C        -2.152542         0.446574         0.209392
 C        -2.135585         2.133633         0.285938
 C        -1.832156         2.557703        -1.215179
 C        -0.558237         1.593776        -1.233146
 O        -2.816010         2.795086         1.402394
 C        -1.640564         2.178106         2.226502
 C        -0.735475         2.040769         0.969666
 H        -0.040775        -0.511081         1.358327
 H        -2.696169        -0.018336        -0.587903
 H        -2.634417         0.128463         1.200947
 H        -2.682228         2.507668        -1.865371
 H        -1.628720         3.666163        -1.188883
 H        -0.725269         1.012280        -2.117292
 H         0.535440         1.924683        -1.197409
 H        -1.237426         2.974716         2.842033
 H        -1.971608         1.234355         2.740704
 H         0.124029         2.674222         0.946768
