19
Iteration:  2125
 O         0.340983        -0.217640         0.183305
 C        -0.575135         0.755404         0.182938
 C        -2.236027         0.480906         0.491967
 C        -2.156633         2.049138         0.327197
 C        -1.884266         2.381210        -1.161064
 C        -0.664421         1.363159        -1.233074
 O        -2.699797         2.940538         1.277726
 C        -1.757308         2.416111         2.285270
 C        -0.681127         1.966163         1.081597
 H         0.372259        -0.569600         1.094490
 H        -2.858853        -0.234602        -0.197689
 H        -2.555018         0.134694         1.525452
 H        -2.657822         2.148119        -1.934130
 H        -1.592645         3.443676        -1.404708
 H        -0.752264         0.578493        -1.975067
 H         0.352075         1.770231        -1.529633
 H        -1.524316         3.425598         2.752215
 H        -2.208700         1.647866         2.876924
 H         0.052220         2.795933         0.847038
