19
Iteration:   475charge 0 multiplicity 1
 O         0.364365        -0.268650         0.218013
 C        -0.678124         0.722369         0.187144
 C        -2.058427         0.454546         0.572250
 C        -2.184105         2.008970         0.338147
 C        -1.867316         2.287832        -1.138681
 C        -0.727051         1.228196        -1.264491
 O        -2.777294         2.967472         1.321401
 C        -1.642535         2.579954         2.176682
 C        -0.775191         2.195796         0.977742
 H         0.608920        -0.628296         1.073926
 H        -2.808791        -0.015561        -0.178212
 H        -2.117367         0.141323         1.645956
 H        -2.604293         1.993074        -1.990588
 H        -1.556263         3.309343        -1.140634
 H        -1.073920         0.359739        -1.863165
 H         0.239751         1.565004        -1.620020
 H        -1.475996         3.294083         2.997982
 H        -1.910680         1.718559         2.787537
 H        -0.079600         3.003931         0.599818
