19
Iteration:   180
 O         0.244667        -0.390678         0.277706
 C        -0.657124         0.729086         0.210431
 C        -2.059872         0.485816         0.548940
 C        -2.161117         2.125165         0.263976
 C        -1.906988         2.342770        -1.203642
 C        -0.647314         1.390291        -1.264180
 O        -2.839332         2.715683         1.353120
 C        -1.594877         2.611482         2.214107
 C        -0.794105         2.150211         1.010866
 H         1.104658         0.101014         0.298505
 H        -2.586010        -0.358886        -0.114251
 H        -2.177520         0.377237         1.641705
 H        -2.679081         1.893307        -1.897162
 H        -1.611619         3.309802        -1.536138
 H        -0.664793         0.567170        -2.039710
 H         0.277625         2.040019        -1.318131
 H        -1.239231         3.633687         2.572680
 H        -1.829751         1.992151         3.143794
 H         0.185355         2.863501         0.924090
