19
Iteration:  1009
 O         0.310247        -0.268800         0.395619
 C        -0.648875         0.709702         0.136695
 C        -2.078054         0.385623         0.404267
 C        -2.159719         2.079029         0.317204
 C        -1.901207         2.421606        -1.140476
 C        -0.542006         1.528849        -1.197596
 O        -2.864965         2.825455         1.288279
 C        -1.633611         2.428250         2.225108
 C        -0.769720         2.061832         0.976683
 H        -0.140675        -1.138795         0.373928
 H        -2.769899        -0.220244        -0.150244
 H        -2.151123         0.229140         1.455107
 H        -2.615281         1.944309        -1.864295
 H        -1.709747         3.466187        -1.467727
 H        -0.462053         0.933806        -2.074732
 H         0.427002         2.132755        -1.089519
 H        -1.265491         3.349414         2.709837
 H        -2.083999         1.678654         2.862138
 H        -0.134228         2.987416         0.776887
