19
Iteration:  2241charge 0 multiplicity 1
 O         0.380895        -0.166302         0.317440
 C        -0.680219         0.710499         0.142706
 C        -2.167984         0.490145         0.303701
 C        -2.152090         2.106435         0.300366
 C        -1.836288         2.323740        -1.147988
 C        -0.669085         1.307260        -1.269351
 O        -2.712528         2.920696         1.422704
 C        -1.680888         2.499291         2.245503
 C        -0.808343         1.998858         1.086518
 H         0.150423        -1.096225         0.290496
 H        -2.861356         0.069864        -0.347678
 H        -2.388274         0.101943         1.290731
 H        -2.759186         2.097246        -1.702462
 H        -1.558803         3.314129        -1.378176
 H        -0.814410         0.461237        -1.970343
 H         0.305438         1.729311        -1.544226
 H        -1.196765         3.180979         2.930700
 H        -1.959163         1.564579         2.770694
 H        -0.246026         2.929784         1.018919
