19
Iteration:  4341charge 0 multiplicity 1
 O         0.182951        -0.232093         0.395225
 C        -0.638833         0.750212         0.077501
 C        -2.268618         0.664248         0.248691
 C        -2.114017         2.209055         0.264680
 C        -1.726352         2.496795        -1.138478
 C        -0.532815         1.406945        -1.237078
 O        -2.847688         2.617335         1.451135
 C        -1.662516         2.229793         2.296956
 C        -0.711873         2.023810         0.995871
 H         0.771276        -0.049312         1.151007
 H        -2.731612         0.305290        -0.646577
 H        -2.751903         0.225371         1.160810
 H        -2.546452         2.335914        -1.832272
 H        -1.195020         3.548664        -1.486848
 H        -0.780976         0.794232        -2.105974
 H         0.535355         1.767799        -1.248506
 H        -1.435363         3.082098         2.840976
 H        -1.928981         1.253117         2.828877
 H        -0.026940         2.842701         0.838037
