19
Iteration:  1321
 O         0.290876        -0.263784         0.370552
 C        -0.661322         0.701183         0.231892
 C        -2.210305         0.480378         0.393035
 C        -2.110206         2.098594         0.285746
 C        -1.744833         2.481866        -1.255034
 C        -0.595546         1.353942        -1.214854
 O        -2.848845         2.727966         1.340061
 C        -1.704842         2.398652         2.273195
 C        -0.788940         2.178988         1.069836
 H         0.591007        -0.334282        -0.560095
 H        -2.653060        -0.112906        -0.438425
 H        -2.418823         0.211376         1.453810
 H        -2.661623         2.330680        -1.909196
 H        -1.285155         3.465575        -1.329347
 H        -0.557162         0.614042        -2.145453
 H         0.284156         1.947122        -1.289484
 H        -1.407805         3.392533         2.763274
 H        -1.800091         1.589915         2.993113
 H         0.041318         2.788509         0.831154
