19
Iteration:  1944
 O         0.265579        -0.284010         0.476678
 C        -0.682044         0.758838         0.192894
 C        -2.184880         0.541393         0.322878
 C        -2.181437         2.064638         0.290342
 C        -1.885266         2.476410        -1.148196
 C        -0.657166         1.415356        -1.328444
 O        -2.742277         2.689073         1.347602
 C        -1.500871         2.445516         2.227482
 C        -0.736991         2.024957         0.976624
 H         0.110680        -0.498245         1.402328
 H        -2.900715         0.085029        -0.438150
 H        -2.402530         0.161166         1.320357
 H        -2.644912         2.317655        -1.918107
 H        -1.540403         3.575691        -1.309193
 H        -0.837109         0.587121        -2.045534
 H         0.282751         1.969684        -1.645210
 H        -1.271692         3.533015         2.302555
 H        -1.738246         1.798247         3.209565
 H        -0.064227         2.902372         0.668269
