19
Iteration:  2832
 O         0.372722        -0.177897         0.448696
 C        -0.706282         0.726032         0.144673
 C        -2.310247         0.565786         0.395432
 C        -2.126772         2.086791         0.265394
 C        -1.869425         2.414269        -1.170844
 C        -0.685013         1.358347        -1.231884
 O        -2.714160         2.746441         1.389382
 C        -1.615384         2.379122         2.201318
 C        -0.717579         2.080942         1.008170
 H         0.349202        -0.848817        -0.254560
 H        -2.722023         0.194459        -0.560889
 H        -2.776994         0.145580         1.314147
 H        -2.520969         2.352874        -2.064301
 H        -1.497135         3.435248        -1.155259
 H        -0.774985         0.661356        -2.035692
 H         0.336554         1.788641        -1.387791
 H        -1.300524         3.153766         2.980950
 H        -1.838833         1.517337         2.878194
 H        -0.000105         2.816414         0.675542
