19
Iteration:   510
 O         0.348670        -0.220121         0.476155
 C        -0.678374         0.667107         0.238496
 C        -2.136650         0.566039         0.364779
 C        -2.130646         2.095638         0.274078
 C        -1.996522         2.368725        -1.228028
 C        -0.782579         1.307339        -1.295576
 O        -2.751338         2.753940         1.398331
 C        -1.539099         2.589367         2.160362
 C        -0.694433         2.010702         0.973744
 H         0.855281         0.120952         1.216505
 H        -2.779802         0.009290        -0.384674
 H        -2.393702         0.130129         1.375093
 H        -2.793461         1.980951        -1.842552
 H        -1.929901         3.461233        -1.487019
 H        -1.141607         0.511736        -1.962035
 H         0.142263         1.645499        -1.675873
 H        -1.123762         3.511294         2.324948
 H        -1.738725         1.973329         3.049252
 H         0.266816         2.499577         0.681172
