19
Iteration:  3520charge 0 multiplicity 1
 O         0.317407        -0.211024         0.384127
 C        -0.724888         0.730508         0.170696
 C        -2.239571         0.447183         0.192003
 C        -2.189221         2.145426         0.325113
 C        -1.699562         2.599728        -1.072262
 C        -0.575330         1.497151        -1.216503
 O        -2.772231         2.812642         1.340182
 C        -1.702742         2.241511         2.317372
 C        -0.808006         1.889669         1.025381
 H         1.157228        -0.003213        -0.073510
 H        -2.729536        -0.053807        -0.769645
 H        -2.748287        -0.016465         1.085859
 H        -2.559001         2.315168        -1.745723
 H        -1.412425         3.636070        -1.192763
 H        -0.765881         0.636633        -2.036089
 H         0.499831         1.723904        -1.263792
 H        -1.340099         3.171306         2.884162
 H        -2.175962         1.394137         2.864066
 H         0.039221         2.604434         0.900054
