19
Iteration:   493charge 0 multiplicity 1
 O         0.388279        -0.314524         0.375803
 C        -0.553435         0.740210         0.133053
 C        -2.213024         0.463561         0.411791
 C        -2.110219         2.076735         0.371201
 C        -1.938361         2.300604        -1.098601
 C        -0.782055         1.224141        -1.349407
 O        -2.782402         2.871188         1.322596
 C        -1.619115         2.615444         2.239420
 C        -0.735214         2.121986         0.959582
 H         0.742568         0.000338         1.211984
 H        -2.646171        -0.073340        -0.400244
 H        -2.513285         0.121418         1.385437
 H        -2.938373         2.202760        -1.608841
 H        -1.432104         3.251178        -1.334086
 H        -0.995180         0.384848        -2.021173
 H         0.132915         1.738960        -1.823367
 H        -1.140633         3.580173         2.723503
 H        -1.823345         1.977687         3.139486
 H        -0.240639         3.038924         0.682053
