19
Iteration:  3808charge 0 multiplicity 1
 O         0.148094        -0.282283         0.370034
 C        -0.671176         0.796612         0.071188
 C        -2.210285         0.497579         0.242426
 C        -2.120985         2.075189         0.333099
 C        -1.790545         2.479241        -1.131730
 C        -0.500814         1.564803        -1.209224
 O        -2.782056         2.707417         1.337357
 C        -1.637511         2.297007         2.287692
 C        -0.818489         1.956902         1.040293
 H         0.904596        -0.060635         0.934185
 H        -2.771043         0.056405        -0.643251
 H        -2.395608         0.202399         1.263383
 H        -2.490367         2.339000        -1.907587
 H        -1.444106         3.558279        -1.088935
 H        -0.387319         1.041091        -2.076915
 H         0.411749         2.163140        -1.055321
 H        -1.223179         3.142805         2.831076
 H        -1.833744         1.550639         3.088738
 H        -0.220645         2.832308         0.863382
