19
Iteration:  1720
 O         0.287634        -0.252844         0.350677
 C        -0.644198         0.736781         0.217254
 C        -2.154842         0.595023         0.439508
 C        -2.103747         2.093033         0.294499
 C        -1.857324         2.318264        -1.138092
 C        -0.642071         1.377409        -1.259753
 O        -2.731277         2.893304         1.278095
 C        -1.807338         2.349758         2.219172
 C        -0.689513         2.015516         1.090492
 H         0.665122        -0.504856        -0.532204
 H        -2.568271        -0.015555        -0.371171
 H        -2.553403         0.343691         1.378776
 H        -2.733764         2.046325        -1.708976
 H        -1.633348         3.330776        -1.315483
 H        -0.639923         0.662275        -2.064857
 H         0.149650         2.063774        -1.469326
 H        -1.495961         3.260929         2.736789
 H        -1.967729         1.616887         3.001031
 H         0.085176         2.766600         1.069340
