19
Iteration:   203charge 0 multiplicity 1
 O         0.347576        -0.274463         0.196247
 C        -0.580391         0.741834         0.242010
 C        -2.171268         0.543191         0.357049
 C        -2.117444         2.036131         0.372010
 C        -1.994419         2.205510        -1.147320
 C        -0.640923         1.278152        -1.208357
 O        -2.774469         2.944127         1.348598
 C        -1.694582         2.564639         2.239218
 C        -0.719449         2.097019         1.071660
 H         1.084933         0.006298         0.749661
 H        -2.730254         0.117517        -0.590439
 H        -2.373183        -0.067444         1.228617
 H        -2.914888         1.789213        -1.686008
 H        -1.739913         3.184732        -1.479409
 H        -0.709675         0.214540        -1.649847
 H         0.204993         1.855347        -1.604727
 H        -1.319044         3.460436         2.841339
 H        -2.025345         1.757984         2.996056
 H        -0.204305         3.018721         0.497927
