19
Iteration:  2178
 O         0.240919        -0.331418         0.371922
 C        -0.591321         0.750797         0.159030
 C        -2.114395         0.483281         0.286997
 C        -2.137698         2.063503         0.327271
 C        -1.845034         2.371552        -1.187152
 C        -0.647756         1.402907        -1.393220
 O        -2.788274         2.765254         1.457625
 C        -1.558997         2.529894         2.258165
 C        -0.849915         2.153521         1.073551
 H         0.138723        -0.585640         1.304144
 H        -2.660170         0.056015        -0.598387
 H        -2.454359         0.111066         1.282646
 H        -2.620198         2.193556        -1.975840
 H        -1.540763         3.435864        -1.229700
 H        -0.923161         0.549710        -2.001831
 H         0.350942         1.803950        -1.714672
 H        -1.335353         3.576325         2.775902
 H        -1.816807         1.692363         2.960553
 H        -0.019154         2.804020         0.767006
