19
Iteration:  1350
 O         0.411247        -0.226287         0.437272
 C        -0.551625         0.740966         0.177554
 C        -2.222268         0.586643         0.320515
 C        -2.179627         2.049887         0.328840
 C        -1.848526         2.441406        -1.142129
 C        -0.640267         1.286862        -1.306172
 O        -2.809236         2.924738         1.310030
 C        -1.778658         2.329202         2.215660
 C        -0.712671         2.026511         1.142172
 H         0.564207        -0.601116        -0.472295
 H        -2.678341         0.110795        -0.529021
 H        -2.510426         0.075375         1.258281
 H        -2.713341         2.302918        -1.847752
 H        -1.552459         3.441361        -1.374370
 H        -0.834365         0.521996        -2.030448
 H         0.220808         1.950064        -1.572214
 H        -1.574800         3.053605         2.930044
 H        -2.112387         1.410776         2.884907
 H         0.186353         2.674186         1.104368
