19
Iteration:  1360
 O         0.456154        -0.234264         0.503396
 C        -0.657057         0.731848         0.185464
 C        -2.248037         0.521515         0.344158
 C        -2.065558         2.123950         0.289801
 C        -1.903442         2.393561        -1.150170
 C        -0.649720         1.412705        -1.368977
 O        -2.789956         2.932203         1.306230
 C        -1.773118         2.301750         2.253140
 C        -0.725405         1.985250         1.055215
 H         0.643890        -0.855082        -0.235422
 H        -2.849280         0.096690        -0.440674
 H        -2.402592        -0.006697         1.294298
 H        -2.795053         2.397551        -1.760721
 H        -1.418199         3.370709        -1.109241
 H        -0.721895         0.625758        -2.051879
 H         0.338311         1.937946        -1.588810
 H        -1.461009         3.038162         2.910386
 H        -2.278532         1.386636         2.728108
 H        -0.022352         2.847964         1.139155
