19
Iteration:  4077charge 0 multiplicity 1
 O         0.342577        -0.308115         0.347033
 C        -0.696962         0.731888         0.137225
 C        -2.298607         0.601241         0.260741
 C        -2.099872         2.133198         0.277259
 C        -1.680041         2.547228        -1.128341
 C        -0.527749         1.512677        -1.292688
 O        -2.907520         2.597411         1.435449
 C        -1.732343         2.394702         2.287487
 C        -0.734932         2.031816         1.024358
 H         0.182923        -1.006704         1.011298
 H        -2.844426         0.098610        -0.552387
 H        -2.614696         0.126533         1.141517
 H        -2.507456         2.340914        -1.804538
 H        -1.301048         3.546498        -1.293348
 H        -0.648396         0.809173        -2.158638
 H         0.477550         2.062040        -1.201172
 H        -1.313784         3.276480         2.824576
 H        -1.742344         1.463807         2.927702
 H         0.013119         2.863220         0.928554
