19
Iteration:  2296
 O         0.210154        -0.297644         0.447464
 C        -0.651239         0.795598         0.130910
 C        -2.139250         0.546496         0.404870
 C        -2.161516         2.113472         0.316752
 C        -1.843211         2.388936        -1.170134
 C        -0.614419         1.394703        -1.324902
 O        -2.834524         2.736714         1.415303
 C        -1.602589         2.448489         2.285684
 C        -0.673416         2.050972         0.930452
 H         0.427339        -0.740372        -0.393145
 H        -2.681849         0.069451        -0.376379
 H        -2.197933         0.268551         1.461769
 H        -2.660713         2.092851        -1.850781
 H        -1.634301         3.434534        -1.349286
 H        -0.958453         0.587216        -1.994539
 H         0.388250         1.902292        -1.526080
 H        -1.179736         3.424974         2.660673
 H        -1.899249         1.697277         3.022891
 H         0.030124         3.017442         0.803596
