19
Iteration:  4931charge 0 multiplicity 1
 O         0.308957        -0.350599         0.306435
 C        -0.627491         0.721785         0.199068
 C        -2.172952         0.544934         0.174240
 C        -2.157615         2.105359         0.246352
 C        -1.677858         2.500400        -1.134656
 C        -0.476682         1.518986        -1.155269
 O        -2.872286         2.784546         1.429908
 C        -1.820040         2.280658         2.319569
 C        -0.876099         2.042098         1.085716
 H         1.023674        -0.078774        -0.285373
 H        -2.655338         0.023549        -0.732633
 H        -2.588876         0.139098         1.103298
 H        -2.316929         2.491654        -2.030239
 H        -1.363774         3.562946        -1.139428
 H        -0.494651         0.670863        -1.811594
 H         0.458612         2.094878        -1.153699
 H        -1.492447         3.067872         2.944968
 H        -2.254324         1.354755         2.813662
 H        -0.184570         2.799989         0.833417
