19
Iteration:  4498
 O         0.304175        -0.236561         0.334601
 C        -0.671609         0.732761         0.183306
 C        -2.268124         0.631646         0.254381
 C        -2.109905         2.153870         0.240117
 C        -1.777778         2.511422        -1.151354
 C        -0.561926         1.487868        -1.240195
 O        -2.757851         2.740097         1.400643
 C        -1.726562         2.223838         2.268363
 C        -0.793276         1.958795         1.056748
 H         0.523321        -0.478540         1.253947
 H        -2.677658         0.132422        -0.653380
 H        -2.646458         0.148491         1.123043
 H        -2.515887         2.015217        -1.850772
 H        -1.385039         3.468849        -1.390935
 H        -0.508121         0.620520        -1.988433
 H         0.255255         2.170188        -1.215372
 H        -1.348727         2.964959         3.052658
 H        -2.064980         1.332408         2.770336
 H        -0.044016         2.814755         0.932216
