19
Iteration:  1111charge 0 multiplicity 1
 O         0.402766        -0.183974         0.383467
 C        -0.621534         0.770716         0.173103
 C        -2.191362         0.424278         0.310499
 C        -2.119981         2.119108         0.304480
 C        -1.819050         2.444105        -1.180999
 C        -0.745786         1.355295        -1.284121
 O        -2.790126         2.938354         1.315805
 C        -1.781156         2.328012         2.248360
 C        -0.679308         1.909930         1.087894
 H         0.597543        -0.009615         1.327461
 H        -2.643968        -0.131791        -0.548795
 H        -2.450988        -0.100151         1.268728
 H        -2.671533         2.331893        -1.861793
 H        -1.350588         3.478738        -1.326110
 H        -0.945337         0.496764        -2.002256
 H         0.233531         1.816470        -1.562789
 H        -1.406624         3.139308         2.769902
 H        -2.175287         1.582858         2.958194
 H        -0.067845         2.758877         1.011577
