19
Iteration:  3204charge 0 multiplicity 1
 O         0.270583        -0.275706         0.487145
 C        -0.660650         0.698552         0.176120
 C        -2.199803         0.535384         0.246849
 C        -2.177499         2.126788         0.295775
 C        -1.813806         2.518368        -1.155686
 C        -0.588115         1.549425        -1.236568
 O        -2.822834         2.744245         1.433143
 C        -1.610064         2.310905         2.194421
 C        -0.760403         1.994831         0.995695
 H         0.425032        -0.896693        -0.275845
 H        -2.589768         0.055288        -0.665175
 H        -2.611124         0.037097         1.118689
 H        -2.625683         2.467092        -1.997201
 H        -1.388576         3.537446        -1.153054
 H        -0.489418         0.883583        -2.136149
 H         0.354601         2.089806        -1.184726
 H        -1.312569         3.068461         2.952437
 H        -1.810937         1.413879         2.773210
 H         0.023086         2.683043         0.793007
