19
Iteration:   317
 O         0.367925        -0.266826         0.322691
 C        -0.661938         0.741580         0.160975
 C        -2.182473         0.471483         0.634619
 C        -2.176511         1.984056         0.345596
 C        -2.022853         2.256782        -1.065281
 C        -0.614287         1.443964        -1.266351
 O        -2.781282         2.911432         1.265201
 C        -1.623805         2.539315         2.071023
 C        -0.627075         2.073726         0.940358
 H         0.021299        -1.145257         0.129962
 H        -2.888816        -0.108160         0.103107
 H        -2.044554         0.237647         1.724010
 H        -2.746420         1.840644        -1.728888
 H        -1.919646         3.416227        -1.162582
 H        -0.589411         0.839454        -2.160525
 H         0.235450         2.167345        -1.147093
 H        -1.383263         3.491224         2.554373
 H        -1.882887         1.733770         2.849079
 H         0.143119         2.732764         0.713561
