19
Iteration:  3515
 O         0.306153        -0.163684         0.402797
 C        -0.744223         0.698755         0.125734
 C        -2.234863         0.417570         0.170345
 C        -2.156268         2.117445         0.311771
 C        -1.674709         2.584728        -1.106114
 C        -0.592811         1.465803        -1.209070
 O        -2.765530         2.850688         1.381304
 C        -1.708941         2.231768         2.300911
 C        -0.834952         1.887492         1.041576
 H         1.181998        -0.030314         0.019343
 H        -2.699331        -0.046342        -0.610284
 H        -2.598128         0.035380         1.101754
 H        -2.460568         2.416149        -1.845978
 H        -1.493994         3.691219        -1.059188
 H        -0.806570         0.871087        -2.019368
 H         0.447854         1.822380        -1.315108
 H        -1.373204         3.049267         2.861184
 H        -2.086206         1.438064         2.935654
 H         0.014240         2.564905         0.906325
