19
Iteration:  4591charge 0 multiplicity 1
 O         0.287294        -0.297443         0.434742
 C        -0.664717         0.811187         0.164782
 C        -2.192087         0.622712         0.150369
 C        -2.192626         2.148772         0.272528
 C        -1.796744         2.522035        -1.290783
 C        -0.492781         1.491000        -1.176299
 O        -2.793769         2.627631         1.480407
 C        -1.631086         2.319871         2.314342
 C        -0.844577         2.062227         1.033112
 H        -0.083838        -1.197768         0.309710
 H        -2.628405         0.237818        -0.819227
 H        -2.555619        -0.024917         1.010775
 H        -2.571738         1.997464        -1.803574
 H        -1.570124         3.609329        -1.501367
 H        -0.544991         0.747271        -1.950943
 H         0.512456         2.123287        -1.241464
 H        -1.308281         3.108030         2.945857
 H        -2.007202         1.420445         2.963212
 H         0.056739         2.611990         0.972383
