19
Iteration:  2554
 O         0.285822        -0.273995         0.479719
 C        -0.675816         0.750145         0.120827
 C        -2.189650         0.607221         0.400570
 C        -2.130444         2.167838         0.322366
 C        -1.968883         2.346939        -1.248598
 C        -0.631143         1.422232        -1.277440
 O        -2.755306         2.703389         1.424863
 C        -1.575113         2.469705         2.239505
 C        -0.678916         2.024235         0.964200
 H         0.344368        -0.908705        -0.271417
 H        -2.913500         0.044657        -0.247729
 H        -2.152591         0.245937         1.489735
 H        -2.811535         1.904610        -1.824236
 H        -1.730326         3.402645        -1.537964
 H        -0.779681         0.657940        -2.095644
 H         0.132358         2.090447        -1.572843
 H        -1.053405         3.325774         2.636010
 H        -1.830265         1.713254         3.063454
 H        -0.072400         2.839605         0.777651
