19
Iteration:  4698
 O         0.289324        -0.315905         0.343387
 C        -0.681971         0.693155         0.217718
 C        -2.187895         0.612188         0.275041
 C        -2.109494         2.149237         0.302548
 C        -1.792804         2.489495        -1.212068
 C        -0.488519         1.500024        -1.195597
 O        -2.814036         2.715834         1.384089
 C        -1.789705         2.305008         2.276399
 C        -0.787616         1.994158         1.082335
 H         0.436741        -0.750601        -0.537794
 H        -2.642848         0.158825        -0.577588
 H        -2.365874         0.231218         1.330846
 H        -2.485146         2.361073        -2.040414
 H        -1.420012         3.519650        -1.291844
 H        -0.275031         0.917645        -2.051540
 H         0.287794         2.308235        -1.054889
 H        -1.542732         3.234544         2.901376
 H        -2.117312         1.541168         2.986723
 H        -0.008434         2.798950         0.882933
