19
Iteration:  4610charge 0 multiplicity 1
 O         0.242172        -0.196014         0.515027
 C        -0.672011         0.721833         0.180489
 C        -2.268432         0.590376         0.126950
 C        -2.065757         2.152184         0.281021
 C        -1.788146         2.466504        -1.175489
 C        -0.544701         1.519749        -1.260302
 O        -2.847171         2.667075         1.449100
 C        -1.638936         2.189515         2.245978
 C        -0.696829         2.100118         1.035278
 H        -0.080740        -1.035335         0.071990
 H        -2.569435         0.207698        -0.803729
 H        -2.774287         0.225104         1.059723
 H        -2.500011         2.027347        -1.848294
 H        -1.503031         3.473407        -1.339263
 H        -0.560727         0.779670        -2.033927
 H         0.363382         2.189814        -1.370709
 H        -1.384752         2.967426         2.991202
 H        -1.750954         1.386059         2.904819
 H        -0.042493         3.005995         0.882746
