19
Iteration:  1379
 O         0.334407        -0.126943         0.538197
 C        -0.662935         0.692072         0.158174
 C        -2.144560         0.459862         0.321088
 C        -2.151810         2.089785         0.235240
 C        -1.836736         2.522640        -1.164558
 C        -0.663765         1.419805        -1.231174
 O        -2.709642         2.871190         1.343397
 C        -1.691285         2.277024         2.226474
 C        -0.804073         1.959747         0.971188
 H         0.216266        -0.974439         0.086979
 H        -2.636048        -0.227842        -0.392183
 H        -2.474351         0.152243         1.301181
 H        -2.553478         2.059840        -1.798176
 H        -1.718522         3.548735        -1.661370
 H        -0.866013         0.805417        -2.092601
 H         0.321105         1.989685        -1.338613
 H        -1.399815         3.100018         2.937198
 H        -2.031988         1.483416         2.827037
 H         0.033342         2.759054         0.972009
