19
Iteration:  4389
 O         0.285034        -0.321833         0.253587
 C        -0.698333         0.733128         0.084593
 C        -2.120124         0.448867         0.242291
 C        -2.119897         2.041630         0.336810
 C        -1.786306         2.445288        -1.023465
 C        -0.554299         1.544547        -1.235705
 O        -2.738652         2.946493         1.348489
 C        -1.823467         2.315981         2.256772
 C        -0.795871         1.982015         1.114705
 H         0.541332        -0.466386         1.185809
 H        -2.758416         0.054487        -0.590830
 H        -2.210779        -0.049727         1.177471
 H        -2.632027         2.378679        -1.797308
 H        -1.555048         3.490723        -1.078066
 H        -0.604235         0.692140        -2.072534
 H         0.484870         2.005445        -1.277565
 H        -1.472434         3.131357         3.006482
 H        -2.351339         1.499201         2.692884
 H         0.015181         2.779790         0.938985
