19
Iteration:  2615
 O         0.441995        -0.126255         0.430443
 C        -0.718170         0.640437         0.154464
 C        -2.264727         0.496733         0.459005
 C        -2.059308         2.087162         0.373297
 C        -1.916137         2.419466        -1.090874
 C        -0.746765         1.370989        -1.407899
 O        -2.796719         2.909367         1.332365
 C        -1.599410         2.424549         2.225349
 C        -0.705520         1.889973         1.004777
 H         0.599004        -0.815959        -0.261383
 H        -2.860571        -0.008860        -0.316418
 H        -2.460152         0.172681         1.431319
 H        -2.719502         2.332211        -1.804329
 H        -1.443146         3.365431        -1.281157
 H        -1.172204         0.623092        -2.070233
 H         0.292061         1.730708        -1.771027
 H        -0.901663         3.151778         2.729710
 H        -2.115097         1.823421         2.917085
 H         0.000113         2.796544         0.750120
