19
Iteration:  2203charge 0 multiplicity 1
 O         0.279569        -0.272935         0.487303
 C        -0.648519         0.789768         0.182573
 C        -2.142836         0.607165         0.331894
 C        -2.102014         2.130881         0.337862
 C        -1.924724         2.440106        -1.166212
 C        -0.712755         1.386730        -1.304574
 O        -2.790088         2.700798         1.397237
 C        -1.575136         2.343807         2.137596
 C        -0.654016         2.104264         0.949583
 H        -0.221651        -0.869145         1.093553
 H        -2.684723        -0.123441        -0.426813
 H        -2.216822         0.402695         1.416968
 H        -2.693918         2.144364        -1.887200
 H        -1.663171         3.555693        -1.315458
 H        -0.859277         0.550227        -2.002075
 H         0.302057         1.831420        -1.410582
 H        -1.240830         3.283677         2.703869
 H        -2.053248         1.540088         2.686005
 H         0.043938         2.853236         0.504940
