19
Iteration:    66charge 0 multiplicity 1
 O         0.354513        -0.310694         0.317220
 C        -0.543257         0.737169         0.202793
 C        -2.055466         0.390666         0.289914
 C        -2.098087         2.009084         0.302633
 C        -1.920051         2.383274        -1.156516
 C        -0.698865         1.385211        -1.310417
 O        -2.859861         2.825179         1.422693
 C        -1.688619         2.665005         2.212033
 C        -0.772493         2.089451         1.089674
 H         0.214687        -0.682904         1.229634
 H        -2.528238        -0.199553        -0.472111
 H        -2.411958         0.148361         1.297296
 H        -2.736145         2.120138        -1.807173
 H        -1.582597         3.423238        -1.330529
 H        -0.912006         0.541563        -1.939898
 H         0.147836         1.921717        -1.720496
 H        -1.347685         3.484868         2.808326
 H        -1.852407         1.911411         2.984134
 H        -0.160559         2.827315         0.686596
