19
Iteration:  2888
 O         0.266298        -0.322229         0.216332
 C        -0.586617         0.772724         0.133550
 C        -2.109998         0.558261         0.403358
 C        -2.073607         2.080325         0.318059
 C        -1.836488         2.409742        -1.065312
 C        -0.621764         1.367569        -1.293947
 O        -2.813112         2.827100         1.345104
 C        -1.737348         2.441894         2.316275
 C        -0.775012         2.052183         1.002818
 H         0.569395        -0.493577         1.136733
 H        -2.600949        -0.109518        -0.268648
 H        -2.573199         0.267534         1.465712
 H        -2.736261         2.171610        -1.688690
 H        -1.458776         3.416851        -1.176628
 H        -0.781142         0.555783        -2.044805
 H         0.276739         1.927419        -1.481272
 H        -1.349768         3.259488         3.036202
 H        -2.170549         1.498141         2.765737
 H        -0.115400         2.882893         0.623741
