19
Iteration:   760charge 0 multiplicity 1
 O         0.262500        -0.357878         0.347053
 C        -0.605854         0.780634         0.203603
 C        -2.170997         0.480746         0.450334
 C        -2.191077         1.997595         0.263150
 C        -1.845409         2.302568        -1.119223
 C        -0.615733         1.376037        -1.318437
 O        -2.817349         2.821419         1.363959
 C        -1.648005         2.621131         2.216058
 C        -0.772801         2.133007         1.000999
 H         1.190871        -0.017299         0.399409
 H        -2.643273        -0.173078        -0.337103
 H        -2.315937         0.040680         1.462070
 H        -2.611362         1.976313        -1.784233
 H        -1.627552         3.384434        -1.347694
 H        -0.780927         0.516060        -1.910456
 H         0.257566         1.968821        -1.600218
 H        -1.159129         3.468955         2.712913
 H        -1.736292         1.867337         3.076034
 H        -0.086984         2.892968         0.732941
