19
Iteration:  2407
 O         0.266731        -0.360206         0.260770
 C        -0.700335         0.741084         0.130372
 C        -2.191887         0.557609         0.441330
 C        -2.081057         2.087997         0.304828
 C        -1.897545         2.381930        -1.151604
 C        -0.635477         1.422168        -1.244484
 O        -2.808427         2.744270         1.411789
 C        -1.618380         2.512315         2.199434
 C        -0.675207         2.040857         1.015080
 H         0.844148        -0.256214         1.028015
 H        -2.907014         0.157546        -0.230849
 H        -2.332453         0.153361         1.420876
 H        -2.716231         2.041733        -1.782642
 H        -1.736565         3.455508        -1.262997
 H        -0.557481         0.799757        -2.108112
 H         0.336057         2.002281        -1.295674
 H        -1.495779         3.551953         2.622700
 H        -1.857688         1.781079         2.955554
 H         0.105568         2.877247         0.685379
