19
Iteration:  2812charge 0 multiplicity 1
 O         0.234395        -0.243740         0.521227
 C        -0.683481         0.719690         0.167877
 C        -2.178086         0.508000         0.264679
 C        -2.167092         2.112770         0.333662
 C        -1.853255         2.411561        -1.203106
 C        -0.595112         1.455213        -1.295856
 O        -2.811869         2.848196         1.457064
 C        -1.518572         2.321892         2.245099
 C        -0.827995         2.033627         0.938168
 H         0.758150        -0.428479        -0.271831
 H        -2.725559        -0.209211        -0.330424
 H        -2.249878         0.132675         1.375291
 H        -2.672748         2.093273        -1.830524
 H        -1.644578         3.378321        -1.599596
 H        -0.624731         0.684193        -2.120040
 H         0.364401         1.915026        -1.513119
 H        -1.050107         3.270784         2.639202
 H        -1.655498         1.728229         3.189944
 H         0.033493         2.660385         0.553059
