19
Iteration:  1287
 O         0.179061        -0.350426         0.496422
 C        -0.622970         0.759111         0.180481
 C        -2.083919         0.411889         0.259974
 C        -2.114462         2.085344         0.306653
 C        -1.864592         2.488523        -1.096128
 C        -0.568610         1.486200        -1.257385
 O        -2.839684         2.745562         1.313369
 C        -1.625619         2.441136         2.221199
 C        -0.797249         2.078085         1.018101
 H         1.105180        -0.328093         0.143906
 H        -2.798377        -0.015801        -0.452137
 H        -2.397451        -0.125162         1.184700
 H        -2.737490         2.142642        -1.759923
 H        -1.643333         3.510335        -1.328181
 H        -0.551925         0.866634        -2.236576
 H         0.229565         2.188006        -1.403022
 H        -1.244440         3.450020         2.490151
 H        -1.745796         1.779028         3.116415
 H        -0.104948         2.845481         0.838138
