19
Iteration:  1805charge 0 multiplicity 1
 O         0.180124        -0.368409         0.544999
 C        -0.622554         0.770144         0.187390
 C        -2.172699         0.612384         0.385075
 C        -2.110181         2.103117         0.270719
 C        -1.808298         2.516328        -1.243948
 C        -0.651817         1.377808        -1.329814
 O        -2.809867         2.579160         1.439870
 C        -1.591470         2.504501         2.179074
 C        -0.765115         2.116426         0.995881
 H         1.098049        -0.420251         0.212777
 H        -2.581948         0.136629        -0.519244
 H        -2.499998         0.100946         1.247938
 H        -2.664828         2.222493        -1.824615
 H        -1.581449         3.645191        -1.319493
 H        -0.905155         0.567650        -2.009276
 H         0.213777         1.974637        -1.735012
 H        -1.134947         3.483213         2.455312
 H        -1.812898         1.796608         2.893984
 H         0.023017         2.748755         0.658405
