19
Iteration:  1460charge 0 multiplicity 1
 O         0.383479        -0.250629         0.367965
 C        -0.686386         0.686867         0.163941
 C        -2.166289         0.426322         0.343202
 C        -2.102966         2.097254         0.352238
 C        -1.878655         2.476447        -1.061899
 C        -0.545752         1.394623        -1.201046
 O        -2.812938         2.849369         1.267975
 C        -1.686974         2.456529         2.190924
 C        -0.771378         2.063172         1.027917
 H         0.086912        -1.123297         0.095755
 H        -2.831041        -0.045468        -0.382900
 H        -2.402591         0.254068         1.407253
 H        -2.648071         2.118518        -1.791223
 H        -1.642958         3.479736        -1.035428
 H        -0.822545         0.670273        -2.008620
 H         0.373440         1.842259        -1.474110
 H        -1.439905         3.194264         2.875419
 H        -2.172382         1.551176         2.697740
 H        -0.140965         2.916075         0.795862
