19
Iteration:  2447
 O         0.348139        -0.225616         0.396855
 C        -0.660940         0.724988         0.161830
 C        -2.183575         0.463634         0.294614
 C        -2.115978         2.067851         0.339916
 C        -1.959413         2.381905        -1.152023
 C        -0.690998         1.355726        -1.246357
 O        -2.714042         2.870614         1.448969
 C        -1.602773         2.420689         2.172771
 C        -0.728851         2.128622         0.934991
 H        -0.087753        -0.826862         1.052537
 H        -2.858044         0.075024        -0.529835
 H        -2.621640        -0.057976         1.233732
 H        -2.860025         2.391027        -1.825105
 H        -1.549490         3.392214        -1.323829
 H        -0.804230         0.519407        -1.975663
 H         0.222653         1.923113        -1.524730
 H        -1.151532         2.987327         2.956484
 H        -1.665278         1.431417         2.706704
 H        -0.032816         2.977353         0.766354
