19
Iteration:  3966charge 0 multiplicity 1
 O         0.265071        -0.362657         0.268413
 C        -0.597089         0.802321         0.151209
 C        -2.156961         0.481461         0.241697
 C        -2.158121         2.036026         0.280146
 C        -1.724694         2.543221        -1.018644
 C        -0.541099         1.538555        -1.181463
 O        -2.865096         2.730535         1.363318
 C        -1.702125         2.320141         2.240034
 C        -0.824538         2.108185         1.049953
 H         0.001949        -0.873693         1.055343
 H        -2.489608         0.072247        -0.687364
 H        -2.523481         0.052710         1.196028
 H        -2.456214         2.446441        -1.885059
 H        -1.292156         3.472402        -0.997724
 H        -0.764157         0.746227        -1.986855
 H         0.380715         2.096259        -1.452529
 H        -1.401330         3.330293         2.731501
 H        -1.872395         1.468793         2.964026
 H        -0.110049         2.985290         0.932965
