19
Iteration:  2911charge 0 multiplicity 1
 O         0.292339        -0.351480         0.264325
 C        -0.719135         0.791736         0.279680
 C        -2.230693         0.485322         0.332679
 C        -2.193579         2.117352         0.208139
 C        -1.846312         2.434980        -1.237651
 C        -0.629325         1.499539        -1.157063
 O        -2.808239         2.754466         1.427426
 C        -1.587845         2.439663         2.200311
 C        -0.647218         2.004278         1.036366
 H         0.946034        -0.142816         0.945205
 H        -2.896696         0.119531        -0.411393
 H        -2.568505        -0.080754         1.356389
 H        -2.678033         1.988315        -1.810268
 H        -1.725591         3.492862        -1.429570
 H        -0.460199         0.646189        -1.884857
 H         0.221716         2.133396        -1.110418
 H        -1.240794         3.416326         2.661975
 H        -1.933177         1.664949         2.996945
 H         0.254399         2.681408         0.800840
