19
Iteration:  3171
 O         0.154078        -0.362041         0.308060
 C        -0.641692         0.749197         0.091903
 C        -2.108575         0.610771         0.309940
 C        -2.086778         2.199526         0.359501
 C        -1.771805         2.413547        -1.156217
 C        -0.551825         1.454288        -1.255871
 O        -2.893659         2.695271         1.368743
 C        -1.642382         2.348971         2.365691
 C        -0.765484         2.119953         1.118410
 H         0.905919        -0.250516        -0.315508
 H        -2.612725         0.080980        -0.525459
 H        -2.440840         0.067027         1.199557
 H        -2.605471         2.142889        -1.933998
 H        -1.365215         3.360896        -1.515423
 H        -0.524973         0.615142        -1.996204
 H         0.353761         2.070820        -1.347054
 H        -1.644882         3.162869         3.108064
 H        -1.902212         1.388750         2.735755
 H        -0.096481         2.917589         0.905961
