19
Iteration:   173charge 0 multiplicity 1
 O         0.230180        -0.394200         0.353297
 C        -0.646731         0.692750         0.174104
 C        -2.068347         0.538287         0.556860
 C        -2.142334         2.088347         0.267290
 C        -1.938165         2.396350        -1.184118
 C        -0.619814         1.420086        -1.253287
 O        -2.841461         2.667292         1.336152
 C        -1.593986         2.583157         2.176532
 C        -0.768708         2.148981         0.974759
 H         1.114089         0.006754         0.160855
 H        -2.698939        -0.263042         0.248180
 H        -2.101015         0.386300         1.623351
 H        -2.791586         2.151066        -1.865581
 H        -1.583800         3.441668        -1.357746
 H        -0.537158         0.582338        -2.053949
 H         0.210790         2.074230        -1.389475
 H        -1.297683         3.604252         2.470716
 H        -1.736472         1.996299         3.108581
 H        -0.050945         2.868310         0.614463
