19
Iteration:  1416charge 0 multiplicity 1
 O         0.277660        -0.302350         0.493674
 C        -0.609634         0.757753         0.129970
 C        -2.193961         0.591700         0.243942
 C        -2.110028         2.130265         0.254527
 C        -1.786792         2.474534        -1.162171
 C        -0.577851         1.384003        -1.282073
 O        -2.874199         2.634605         1.452285
 C        -1.652094         2.442178         2.241258
 C        -0.759758         2.176655         0.995104
 H        -0.033980        -1.190187         0.333746
 H        -2.599754        -0.003983        -0.572820
 H        -2.382725         0.243440         1.292811
 H        -2.605971         1.900323        -1.666420
 H        -1.568349         3.467836        -1.445993
 H        -0.849686         0.721233        -2.124037
 H         0.468471         1.705224        -1.361484
 H        -1.449837         3.357393         2.716351
 H        -1.612422         1.617600         3.105695
 H        -0.120694         3.028107         0.684388
