19
Iteration:  4647
 O         0.358041        -0.269901         0.446736
 C        -0.628754         0.714037         0.192302
 C        -2.195841         0.438901         0.297648
 C        -2.116006         2.067071         0.256249
 C        -1.677672         2.589752        -1.083928
 C        -0.647070         1.508625        -1.323117
 O        -2.811851         2.850683         1.352572
 C        -1.774408         2.248105         2.269212
 C        -0.830182         2.017662         1.054834
 H         0.800738        -0.865067        -0.202034
 H        -2.676492        -0.222302        -0.549189
 H        -2.593085         0.118957         1.242656
 H        -2.514248         2.691536        -1.810561
 H        -1.451176         3.701643        -1.039417
 H        -1.020766         0.845011        -2.145669
 H         0.281277         2.004692        -1.765822
 H        -1.411035         3.007686         2.926358
 H        -2.257810         1.339693         2.749527
 H        -0.035242         2.724108         0.992883
