19
Iteration:  3594charge 0 multiplicity 1
 O         0.258172        -0.422059         0.314184
 C        -0.675587         0.680378         0.160381
 C        -2.156466         0.498226         0.209224
 C        -2.119227         2.161698         0.328369
 C        -1.810121         2.580048        -1.137849
 C        -0.542705         1.565413        -1.095358
 O        -2.818875         2.738036         1.364780
 C        -1.749211         2.339774         2.251389
 C        -0.765148         2.009848         1.037378
 H         1.083789         0.015964         0.589628
 H        -2.533756         0.046247        -0.671055
 H        -2.362191         0.029699         1.123478
 H        -2.625464         2.167604        -1.876639
 H        -1.558322         3.625718        -1.274386
 H        -0.683826         1.023524        -2.081443
 H         0.263632         2.228952        -1.182310
 H        -1.363458         3.134851         2.916291
 H        -2.065423         1.510386         2.854941
 H         0.050635         2.772650         0.834074
