19
Iteration:  3052
 O         0.264901        -0.298326         0.407352
 C        -0.629568         0.765015         0.090720
 C        -2.108213         0.580024         0.389469
 C        -2.153982         2.106291         0.328542
 C        -1.862909         2.440119        -1.124193
 C        -0.573410         1.537820        -1.288693
 O        -2.824936         2.762014         1.328645
 C        -1.662615         2.260063         2.268184
 C        -0.692100         2.030562         1.041360
 H        -0.188826        -1.104695         0.117414
 H        -2.708599         0.018188        -0.331956
 H        -2.412096         0.171671         1.439537
 H        -2.748007         2.218085        -1.785277
 H        -1.486401         3.442841        -1.054669
 H        -0.734698         0.893594        -2.193214
 H         0.196694         2.248100        -1.488493
 H        -1.289167         3.261737         2.498815
 H        -1.868451         1.536420         3.037623
 H        -0.182058         2.901181         0.661166
