19
Iteration:  1425charge 0 multiplicity 1
 O         0.279744        -0.311712         0.477415
 C        -0.672336         0.749421         0.137953
 C        -2.087584         0.558218         0.259692
 C        -2.094588         2.161166         0.259837
 C        -1.851886         2.496851        -1.210691
 C        -0.545743         1.378934        -1.275567
 O        -2.889557         2.620034         1.437562
 C        -1.661440         2.470197         2.231421
 C        -0.742904         2.135839         1.071927
 H        -0.180077        -1.126838         0.252127
 H        -2.650207        -0.130775        -0.342368
 H        -2.331591         0.271392         1.311120
 H        -2.653151         2.315673        -1.930748
 H        -1.731860         3.587802        -1.455631
 H        -0.845103         0.611816        -1.937318
 H         0.502400         1.758196        -1.571036
 H        -1.307327         3.369671         2.604246
 H        -1.827414         1.762506         3.094056
 H         0.079266         2.884421         0.785931
