19
Iteration:  2963
 O         0.190677        -0.339880         0.449801
 C        -0.612083         0.764872         0.252669
 C        -2.035365         0.518004         0.355270
 C        -2.145857         2.091961         0.216285
 C        -1.873791         2.503310        -1.147789
 C        -0.712892         1.410059        -1.327779
 O        -2.782706         2.798610         1.399472
 C        -1.628340         2.269918         2.183597
 C        -0.733788         2.134701         1.007555
 H         1.099641        -0.068096         0.259367
 H        -2.479014         0.001396        -0.459859
 H        -2.411672         0.130380         1.381582
 H        -2.736682         2.549670        -1.910440
 H        -1.420157         3.467873        -0.961235
 H        -1.097642         0.631734        -1.997253
 H         0.241550         1.846533        -1.652044
 H        -1.429541         3.089243         2.928735
 H        -1.846387         1.336121         2.682546
 H        -0.127025         3.003514         0.804565
