19
Iteration:  3683charge 0 multiplicity 1
 O         0.128670        -0.357338         0.336019
 C        -0.619105         0.717940         0.084548
 C        -2.147294         0.552841         0.161563
 C        -2.037371         2.163685         0.319372
 C        -1.813657         2.518892        -1.060602
 C        -0.464429         1.527013        -1.238779
 O        -2.864079         2.662356         1.368535
 C        -1.708568         2.369029         2.364923
 C        -0.760861         2.003673         1.072918
 H         1.027704        -0.094473         0.608470
 H        -2.580047         0.034370        -0.694749
 H        -2.480712         0.013919         1.066505
 H        -2.742431         2.042649        -1.584599
 H        -1.666975         3.590100        -1.236230
 H        -0.489595         0.900950        -2.216400
 H         0.381555         2.156595        -1.215481
 H        -1.438866         3.364374         2.777810
 H        -2.144441         1.601859         2.967658
 H        -0.071134         2.908435         0.944327
