19
Iteration:  2206charge 0 multiplicity 1
 O         0.287477        -0.261040         0.484690
 C        -0.634846         0.786639         0.197770
 C        -2.147971         0.612054         0.344044
 C        -2.113637         2.140537         0.320489
 C        -1.925578         2.436362        -1.176970
 C        -0.711372         1.407611        -1.298410
 O        -2.794094         2.715806         1.399846
 C        -1.551775         2.335888         2.084537
 C        -0.683388         2.084704         0.981122
 H        -0.131306        -0.934480         1.029131
 H        -2.693868        -0.040590        -0.296344
 H        -2.297498         0.421545         1.394177
 H        -2.677345         2.115830        -1.889703
 H        -1.690630         3.475968        -1.293729
 H        -0.882109         0.537416        -1.973154
 H         0.272583         1.775316        -1.428868
 H        -1.272219         3.080578         2.695467
 H        -1.957414         1.558201         2.703782
 H         0.082282         2.739190         0.614850
