19
Iteration:   857
 O         0.364262        -0.301113         0.239098
 C        -0.640687         0.730063         0.203963
 C        -2.143128         0.421366         0.441682
 C        -2.180527         2.067664         0.363781
 C        -1.806254         2.386917        -1.129664
 C        -0.599866         1.319009        -1.231450
 O        -2.823996         2.832897         1.301034
 C        -1.694196         2.533985         2.232347
 C        -0.796888         2.177139         0.964442
 H         0.568227        -0.502985         1.187599
 H        -2.716958        -0.176800        -0.288244
 H        -2.352739         0.098186         1.454825
 H        -2.669132         2.243557        -1.843568
 H        -1.582821         3.494365        -1.178699
 H        -0.954165         0.543362        -1.907393
 H         0.365132         1.878397        -1.568003
 H        -1.461067         3.283585         3.012089
 H        -1.938913         1.620165         2.761928
 H        -0.141291         3.022332         0.714628
