19
Iteration:  2719charge 0 multiplicity 1
 O         0.418820        -0.149546         0.311106
 C        -0.702447         0.725960         0.226452
 C        -2.216324         0.484554         0.334421
 C        -2.147472         2.049504         0.320528
 C        -1.892707         2.456558        -1.082133
 C        -0.730546         1.263724        -1.215641
 O        -2.704039         2.902139         1.372028
 C        -1.614015         2.446155         2.219286
 C        -0.759804         1.998549         0.947817
 H         0.177862        -0.979308         0.766959
 H        -2.809659         0.023881        -0.477580
 H        -2.570574        -0.096473         1.224244
 H        -2.750752         2.369474        -1.830688
 H        -1.433791         3.486616        -1.288351
 H        -0.840141         0.377872        -1.868259
 H         0.197664         1.746570        -1.556494
 H        -1.257255         3.263414         2.856366
 H        -1.771082         1.507600         2.807851
 H        -0.191852         2.815518         0.565742
