19
Iteration:  2848
 O         0.411588        -0.180162         0.341597
 C        -0.656348         0.730065         0.288395
 C        -2.184843         0.541825         0.328506
 C        -2.094564         2.152434         0.304159
 C        -1.814931         2.479566        -1.106115
 C        -0.736774         1.301880        -1.264474
 O        -2.810826         2.826773         1.326418
 C        -1.671323         2.334356         2.257038
 C        -0.724272         2.011933         0.957537
 H         0.037303        -1.060857         0.209352
 H        -2.780436         0.032689        -0.438393
 H        -2.484820         0.308212         1.362126
 H        -2.780813         2.315108        -1.547434
 H        -1.369257         3.473473        -1.319618
 H        -1.107771         0.429912        -1.906169
 H         0.194251         1.752726        -1.574129
 H        -1.338832         3.172981         2.820113
 H        -2.017543         1.443499         2.809019
 H         0.060186         2.815691         0.854323
