19
Iteration:  3086charge 0 multiplicity 1
 O         0.326925        -0.258071         0.351706
 C        -0.691493         0.802196         0.237873
 C        -2.145620         0.542520         0.213533
 C        -2.093290         2.212027         0.280163
 C        -1.850864         2.465952        -1.258396
 C        -0.674419         1.388937        -1.242038
 O        -2.806873         2.740385         1.488316
 C        -1.629614         2.203844         2.298238
 C        -0.742115         2.130467         1.017536
 H         0.008992        -0.962864         0.935183
 H        -2.415137         0.015385        -0.755935
 H        -2.755037         0.228512         1.028288
 H        -2.616634         2.418839        -1.988663
 H        -1.367793         3.434576        -1.480380
 H        -0.812272         0.519911        -1.926680
 H         0.243492         1.856688        -1.501232
 H        -1.408738         3.065760         2.904803
 H        -1.736987         1.393413         3.008246
 H        -0.109485         3.010858         0.914575
