19
Iteration:  3873
 O         0.222427        -0.260875         0.354591
 C        -0.636384         0.735227         0.106162
 C        -2.161933         0.475705         0.378304
 C        -2.173818         2.111725         0.270957
 C        -1.685082         2.545752        -1.189588
 C        -0.547552         1.498808        -1.270737
 O        -2.806287         2.832892         1.352603
 C        -1.735380         2.248849         2.298193
 C        -0.802677         1.915447         1.114857
 H         1.034405         0.088516        -0.071968
 H        -2.653366        -0.180100        -0.437533
 H        -2.478968         0.250544         1.397363
 H        -2.519750         2.380438        -1.822150
 H        -1.416646         3.719973        -1.036962
 H        -0.912641         0.879101        -2.013984
 H         0.443668         1.871428        -1.538084
 H        -1.553370         3.032516         2.994071
 H        -2.172925         1.356012         2.842558
 H        -0.098536         2.713894         1.011975
