19
Iteration:  4226
 O         0.253066        -0.314284         0.320689
 C        -0.646629         0.773563         0.173860
 C        -2.157306         0.555533         0.265957
 C        -2.063403         2.087917         0.283273
 C        -1.807362         2.550263        -1.065941
 C        -0.540121         1.480970        -1.211151
 O        -2.819960         2.731362         1.366987
 C        -1.732289         2.322254         2.200142
 C        -0.744567         2.023473         1.067236
 H        -0.147058        -1.065786         0.802443
 H        -2.427216         0.050187        -0.662239
 H        -2.383557         0.121934         1.265900
 H        -2.711533         2.472645        -1.792886
 H        -1.469777         3.565789        -1.090058
 H        -0.798587         0.814624        -2.075773
 H         0.336491         1.997303        -1.474355
 H        -1.529604         3.199459         2.958729
 H        -2.083580         1.449540         2.703185
 H         0.007496         2.838557         0.937846
