19
Iteration:  3780charge 0 multiplicity 1
 O         0.318988        -0.351296         0.420677
 C        -0.642145         0.758803         0.177355
 C        -2.214610         0.469922         0.230846
 C        -2.103211         2.226570         0.317330
 C        -1.805619         2.556887        -1.204294
 C        -0.637769         1.506895        -1.255661
 O        -2.795762         2.813454         1.432093
 C        -1.761040         2.190088         2.205543
 C        -0.765533         2.000701         1.090477
 H         1.214129         0.023833         0.555251
 H        -2.555729         0.087719        -0.695888
 H        -2.684134         0.075763         1.136028
 H        -2.663150         2.414977        -2.022112
 H        -1.308870         3.513677        -1.279914
 H        -0.714022         0.712130        -2.123801
 H         0.361731         2.015448        -1.295708
 H        -1.430295         2.844992         3.077892
 H        -1.988516         1.197132         2.571434
 H        -0.029575         2.845221         0.837668
