19
Iteration:  1250
 O         0.333513        -0.270495         0.378911
 C        -0.603266         0.790286         0.167599
 C        -2.213531         0.564473         0.357614
 C        -2.133521         2.186269         0.290681
 C        -1.835602         2.408223        -1.164420
 C        -0.623739         1.351851        -1.279485
 O        -2.829150         2.808997         1.348769
 C        -1.639362         2.288147         2.222918
 C        -0.822124         2.035106         1.032985
 H         0.950749        -0.106382         1.109645
 H        -2.756234         0.152198        -0.514125
 H        -2.571740         0.262607         1.327335
 H        -2.642266         2.038477        -1.748356
 H        -1.530827         3.448402        -1.473239
 H        -0.685064         0.565497        -1.972590
 H         0.469224         1.756218        -1.371592
 H        -1.245670         3.105683         2.809801
 H        -2.120595         1.424089         2.869039
 H        -0.067061         2.891223         0.920514
