19
Iteration:  3984charge 0 multiplicity 1
 O         0.274695        -0.252121         0.225561
 C        -0.699584         0.743487         0.206114
 C        -2.128830         0.509419         0.183777
 C        -2.066856         2.093644         0.280151
 C        -1.779864         2.561299        -1.145237
 C        -0.563607         1.452755        -1.192290
 O        -2.829151         2.722797         1.375836
 C        -1.751079         2.385318         2.314036
 C        -0.750005         1.937970         1.143399
 H         0.622868        -0.415262         1.115665
 H        -2.661798         0.036253        -0.686143
 H        -2.572742        -0.028432         1.067191
 H        -2.638147         2.396782        -1.845766
 H        -1.538951         3.695291        -1.060536
 H        -0.677462         0.818802        -2.010584
 H         0.391793         1.891193        -1.143987
 H        -1.565440         3.310270         2.906634
 H        -2.285484         1.670509         2.871948
 H         0.094740         2.529803         0.815447
