19
Iteration:  2071charge 0 multiplicity 1
 O         0.222016        -0.157302         0.454620
 C        -0.704868         0.759192         0.210371
 C        -2.190715         0.646081         0.311775
 C        -2.120511         2.116041         0.274510
 C        -1.829242         2.402557        -1.203772
 C        -0.681712         1.362672        -1.261868
 O        -2.793914         2.663874         1.422983
 C        -1.506802         2.350989         2.158950
 C        -0.715481         2.028869         0.937076
 H        -0.022541        -0.724818         1.220582
 H        -2.684797        -0.170891        -0.351381
 H        -2.175368         0.414663         1.426520
 H        -2.752626         2.137654        -1.737812
 H        -1.434568         3.437065        -1.375829
 H        -0.832426         0.658006        -2.074307
 H         0.309145         1.885414        -1.322599
 H        -1.212464         3.344823         2.546631
 H        -1.641075         1.725690         3.010243
 H         0.006243         2.836220         0.627961
