19
Iteration:  1266
 O         0.237113        -0.324369         0.432676
 C        -0.650840         0.726637         0.221818
 C        -2.134154         0.532499         0.214793
 C        -2.110267         2.037121         0.286203
 C        -1.877447         2.396180        -1.230832
 C        -0.625629         1.492111        -1.211000
 O        -2.755907         2.791984         1.395713
 C        -1.727037         2.439407         2.272996
 C        -0.709026         2.082669         1.028168
 H         0.998471         0.159492         0.769649
 H        -2.494289        -0.170521        -0.582120
 H        -2.534503        -0.056365         1.074236
 H        -2.730914         2.136226        -1.957745
 H        -1.639640         3.445277        -1.278757
 H        -0.812637         0.641204        -2.007623
 H         0.209969         1.957599        -1.640819
 H        -1.401617         3.279162         2.939820
 H        -1.921202         1.545917         2.866413
 H         0.056628         2.744925         0.719896
