19
Iteration:  2215charge 0 multiplicity 1
 O         0.321482        -0.221314         0.456329
 C        -0.649481         0.750452         0.213753
 C        -2.154847         0.594080         0.427230
 C        -2.152512         2.138880         0.215928
 C        -1.903795         2.411939        -1.199339
 C        -0.678540         1.417493        -1.261137
 O        -2.795249         2.781916         1.390163
 C        -1.571916         2.324958         2.153999
 C        -0.704416         2.031125         0.949561
 H        -0.056552        -1.004260         0.861395
 H        -2.830408         0.052862        -0.341899
 H        -2.585547         0.245315         1.369898
 H        -2.761952         2.125685        -1.811481
 H        -1.619300         3.473871        -1.432960
 H        -0.957033         0.624060        -1.990479
 H         0.221679         1.884500        -1.657350
 H        -1.205487         3.091721         2.818991
 H        -1.561294         1.431353         2.782511
 H         0.146292         2.730963         0.995909
