19
Iteration:  4533charge 0 multiplicity 1
 O         0.382185        -0.302188         0.130615
 C        -0.616529         0.734319         0.229942
 C        -2.122909         0.493602         0.308850
 C        -2.110564         2.104378         0.304995
 C        -1.653568         2.571416        -1.105067
 C        -0.669165         1.428463        -1.242405
 O        -2.852030         2.842886         1.339875
 C        -1.843551         2.354562         2.302332
 C        -0.838226         1.962732         1.140465
 H         0.286124        -0.722157         1.016330
 H        -2.468646        -0.057430        -0.544949
 H        -2.576144         0.098379         1.270879
 H        -2.609030         2.549345        -1.664735
 H        -1.295357         3.546364        -1.299910
 H        -0.756240         0.588847        -1.966727
 H         0.344718         1.840952        -1.449815
 H        -1.363065         3.064854         3.044052
 H        -2.353095         1.556881         2.791324
 H        -0.016336         2.737847         1.133937
