19
Iteration:   406
 O         0.263687        -0.186799         0.625162
 C        -0.640490         0.766463         0.187517
 C        -2.053742         0.422823         0.430003
 C        -2.252534         2.006576         0.284859
 C        -1.977114         2.357364        -1.269132
 C        -0.759498         1.315617        -1.331519
 O        -2.742358         2.835938         1.409829
 C        -1.380244         2.530066         2.180787
 C        -0.823819         2.141243         0.868415
 H         0.345218        -0.883310        -0.049307
 H        -2.657271        -0.085875        -0.323911
 H        -2.282814        -0.014948         1.402299
 H        -2.769942         2.164568        -2.048394
 H        -1.595608         3.404316        -1.278291
 H        -0.959090         0.547765        -2.062667
 H         0.272069         1.793292        -1.399103
 H        -1.027334         3.391115         2.871735
 H        -1.487766         1.680533         2.863531
 H        -0.112048         2.787756         0.402805
