19
Iteration:   615
 O         0.378668        -0.252924         0.334330
 C        -0.664942         0.721564         0.209411
 C        -2.114382         0.493760         0.551115
 C        -2.239765         2.078331         0.329326
 C        -1.827613         2.268130        -1.189272
 C        -0.652605         1.250719        -1.242730
 O        -2.792985         2.910251         1.374301
 C        -1.621473         2.559096         2.189650
 C        -0.882259         2.091686         0.960421
 H         0.721860        -0.250359        -0.558776
 H        -2.519482        -0.127260        -0.273121
 H        -2.477976         0.201102         1.538921
 H        -2.634411         2.137925        -2.041790
 H        -1.308340         3.173461        -1.245154
 H        -0.855786         0.344004        -1.950567
 H         0.338332         1.815905        -1.537760
 H        -1.065657         3.588545         2.651193
 H        -1.963019         1.913953         3.052135
 H        -0.154154         2.773888         0.478509
