19
Iteration:  3779charge 0 multiplicity 1
 O         0.318652        -0.348630         0.421143
 C        -0.635786         0.764661         0.172917
 C        -2.205883         0.471817         0.230316
 C        -2.091628         2.231741         0.312534
 C        -1.808028         2.558761        -1.206569
 C        -0.651797         1.496274        -1.266483
 O        -2.794576         2.814047         1.432028
 C        -1.766763         2.186234         2.221784
 C        -0.772458         2.005412         1.099487
 H         1.226253         0.002048         0.538412
 H        -2.568443         0.066357        -0.703792
 H        -2.690839         0.055293         1.109842
 H        -2.629951         2.427782        -2.020871
 H        -1.287564         3.465567        -1.293083
 H        -0.708364         0.718755        -2.112817
 H         0.358913         2.001888        -1.284932
 H        -1.420897         2.861375         3.083437
 H        -2.016858         1.193029         2.569213
 H        -0.045405         2.827103         0.840580
