19
Iteration:  4869
 O         0.207107        -0.324615         0.405506
 C        -0.642323         0.762925         0.155120
 C        -2.149998         0.578603         0.181631
 C        -2.115247         2.099181         0.271978
 C        -1.684096         2.570727        -1.221309
 C        -0.462880         1.518943        -1.245269
 O        -2.934386         2.739500         1.456530
 C        -1.716913         2.181690         2.318994
 C        -0.813956         2.035416         1.026473
 H         0.973268         0.067418         0.854851
 H        -2.626246         0.275003        -0.748623
 H        -2.705112         0.145177         1.079055
 H        -2.341420         2.329025        -2.080242
 H        -1.472012         3.631679        -1.098169
 H        -0.627813         0.616249        -1.988077
 H         0.494844         1.940775        -1.502859
 H        -1.470880         2.828307         3.191304
 H        -1.998485         1.254553         2.829629
 H        -0.153468         2.944824         0.958416
