19
Iteration:     4charge 0 multiplicity 1
 O         0.364304        -0.206238         0.328070
 C        -0.660474         0.769180         0.217555
 C        -2.127808         0.495594         0.410392
 C        -2.181940         2.085958         0.311307
 C        -1.904221         2.361158        -1.193999
 C        -0.658307         1.352982        -1.247653
 O        -2.791447         2.755209         1.349802
 C        -1.641186         2.463467         2.221714
 C        -0.759572         2.081969         0.999976
 H         0.358957        -0.563200         1.244147
 H        -2.576529        -0.099757        -0.394901
 H        -2.417115         0.174310         1.439934
 H        -2.601589         2.082331        -1.975782
 H        -1.593309         3.408098        -1.396062
 H        -0.796167         0.616515        -1.997775
 H         0.304428         1.936220        -1.492912
 H        -1.399875         3.450087         2.585941
 H        -1.852107         1.658937         2.922020
 H         0.029741         2.875680         0.723324
