19
Iteration:  1547
 O         0.227124        -0.264320         0.507221
 C        -0.686501         0.768012         0.184164
 C        -2.144150         0.460317         0.322886
 C        -2.227716         2.054030         0.303173
 C        -1.801508         2.509344        -1.180503
 C        -0.613840         1.390266        -1.303835
 O        -2.738490         2.682336         1.379949
 C        -1.622247         2.482908         2.294891
 C        -0.752419         2.129698         0.950399
 H         0.642275        -0.617202        -0.274029
 H        -2.645473        -0.154047        -0.426203
 H        -2.270678        -0.040339         1.272190
 H        -2.337494         2.297499        -2.199604
 H        -1.575284         3.544438        -1.134179
 H        -0.850953         0.613685        -2.068271
 H         0.433716         1.602034        -1.412983
 H        -1.471296         3.441802         2.653021
 H        -2.016651         1.791788         3.116660
 H        -0.129216         2.942531         0.574035
