19
Iteration:  3905
 O         0.349706        -0.252624         0.438087
 C        -0.655307         0.673789         0.151907
 C        -2.238679         0.545971         0.184739
 C        -2.146780         2.112362         0.308651
 C        -1.829083         2.482813        -1.080642
 C        -0.588579         1.465936        -1.192495
 O        -2.781071         2.864222         1.388732
 C        -1.709196         2.253771         2.249752
 C        -0.743863         2.006189         1.082503
 H         0.844002        -0.466562        -0.377114
 H        -2.477858         0.233076        -0.902671
 H        -2.861526        -0.020024         0.884457
 H        -2.659396         2.320056        -1.760239
 H        -1.478897         3.636854        -1.375046
 H        -0.660576         0.809210        -2.053747
 H         0.354580         1.997335        -1.432539
 H        -1.694533         2.865588         3.091418
 H        -2.089098         1.284983         2.650776
 H        -0.015653         2.712500         0.745608
