19
Iteration:  1429
 O         0.272328        -0.298612         0.461034
 C        -0.654574         0.753631         0.174505
 C        -2.054728         0.538935         0.307119
 C        -2.096344         2.154206         0.281536
 C        -1.875935         2.508811        -1.242006
 C        -0.541722         1.403275        -1.272913
 O        -2.886614         2.622525         1.413502
 C        -1.658888         2.487646         2.236852
 C        -0.739843         2.081150         1.047271
 H        -0.274460        -1.087341         0.201567
 H        -2.713619        -0.072429        -0.363047
 H        -2.393927         0.240577         1.313946
 H        -2.657322         2.388128        -2.063455
 H        -1.579563         3.530276        -1.334711
 H        -0.798409         0.496656        -1.959076
 H         0.319261         1.855176        -1.672330
 H        -1.293056         3.494976         2.606331
 H        -1.970201         1.731998         3.075248
 H         0.076745         2.752105         0.959184
