19
Iteration:  3102charge 0 multiplicity 1
 O         0.367218        -0.203734         0.321869
 C        -0.651315         0.755372         0.169306
 C        -2.276528         0.600763         0.251663
 C        -2.190035         2.088052         0.271836
 C        -1.769937         2.491750        -1.126746
 C        -0.603412         1.391500        -1.219785
 O        -2.785051         2.771172         1.422719
 C        -1.607328         2.285248         2.267047
 C        -0.814229         1.991802         1.009313
 H         0.319874        -0.439097         1.265209
 H        -2.889635         0.189633        -0.553846
 H        -2.597859         0.078165         1.209211
 H        -2.597221         2.259626        -1.886318
 H        -1.525497         3.568854        -1.242269
 H        -0.933975         0.704540        -1.998456
 H         0.380215         1.923442        -1.528839
 H        -1.131853         2.997467         2.985673
 H        -1.979680         1.320028         2.736123
 H         0.017352         2.712791         0.764227
