19
Iteration:   168charge 0 multiplicity 1
 O         0.226715        -0.377275         0.404321
 C        -0.623942         0.704087         0.152253
 C        -2.086045         0.556181         0.553838
 C        -2.115912         2.028896         0.296785
 C        -1.940187         2.414578        -1.181546
 C        -0.625077         1.424421        -1.243000
 O        -2.853202         2.667297         1.347048
 C        -1.614328         2.575413         2.148023
 C        -0.728448         2.121008         0.927295
 H         1.131701        -0.213125         0.097281
 H        -2.877444        -0.212108         0.175154
 H        -2.082545         0.446756         1.669604
 H        -2.815927         2.297305        -1.840736
 H        -1.676461         3.467389        -1.208249
 H        -0.597958         0.728356        -2.066853
 H         0.300847         2.075305        -1.422411
 H        -1.352215         3.621714         2.418560
 H        -1.682389         1.895161         3.031988
 H        -0.105012         2.989537         0.419158
