19
Iteration:   980charge 0 multiplicity 1
 O         0.457652        -0.113931         0.387045
 C        -0.627721         0.726066         0.277892
 C        -2.180982         0.528730         0.305957
 C        -2.156200         2.079440         0.311307
 C        -1.827918         2.435549        -1.158366
 C        -0.663252         1.268998        -1.293890
 O        -2.868879         2.856447         1.364679
 C        -1.697324         2.416503         2.226343
 C        -0.726259         1.963727         1.074958
 H         0.397777        -0.925595        -0.172366
 H        -2.662529         0.163965        -0.647062
 H        -2.670685         0.216469         1.274433
 H        -2.600083         2.230792        -1.853565
 H        -1.513389         3.481071        -1.493946
 H        -1.090505         0.387127        -1.855743
 H         0.376451         1.632299        -1.486397
 H        -1.344624         3.196041         2.823744
 H        -2.196875         1.598386         2.805001
 H        -0.133450         2.765955         0.794744
