19
Iteration:   421charge 0 multiplicity 1
 O         0.337062        -0.244003         0.551599
 C        -0.626923         0.769780         0.138785
 C        -2.183963         0.470715         0.354507
 C        -2.139328         2.076074         0.340115
 C        -1.990311         2.236914        -1.106733
 C        -0.679646         1.345029        -1.309530
 O        -2.760999         2.874393         1.401228
 C        -1.507557         2.551124         2.194152
 C        -0.740777         2.115810         0.876979
 H         0.090436        -1.071124         0.113815
 H        -2.661767        -0.236616        -0.469091
 H        -2.351953        -0.002093         1.358396
 H        -2.900872         1.876122        -1.720010
 H        -1.844118         3.232805        -1.473667
 H        -0.768951         0.509076        -2.039098
 H         0.056921         1.957621        -1.790703
 H        -1.080028         3.512811         2.473407
 H        -1.725444         1.949424         3.095828
 H        -0.183256         3.053372         0.497416
