19
Iteration:  3463
 O         0.138268        -0.339967         0.329202
 C        -0.652550         0.822872         0.238865
 C        -2.083268         0.616523         0.224862
 C        -2.038869         2.153748         0.310021
 C        -1.797217         2.517509        -1.171998
 C        -0.627020         1.494726        -1.246941
 O        -2.842382         2.620092         1.355682
 C        -1.748813         2.260632         2.232737
 C        -0.673041         2.057897         1.120675
 H         1.059107        -0.129912         0.537447
 H        -2.541912         0.224293        -0.661407
 H        -2.477371         0.278194         1.135805
 H        -2.823055         2.461822        -1.596035
 H        -1.363962         3.465202        -1.379578
 H        -0.575176         0.551886        -1.856362
 H         0.308262         2.013974        -1.325228
 H        -1.515969         2.986322         3.017254
 H        -2.078564         1.391060         2.790514
 H         0.135030         2.827010         1.016149
