19
Iteration:  2947
 O         0.202260        -0.336628         0.468781
 C        -0.604554         0.808124         0.059913
 C        -2.196863         0.499648         0.276961
 C        -2.165405         2.062844         0.394039
 C        -1.842794         2.455682        -1.093190
 C        -0.619915         1.441494        -1.313846
 O        -2.827652         2.766434         1.421730
 C        -1.629306         2.423852         2.223408
 C        -0.684395         2.061347         0.962615
 H         1.116335        -0.115624         0.719502
 H        -2.725759         0.023013        -0.615624
 H        -2.355928         0.000506         1.181789
 H        -2.614856         2.181118        -1.764882
 H        -1.643442         3.515350        -1.352919
 H        -0.756088         0.646477        -2.062992
 H         0.292020         1.986993        -1.638550
 H        -1.192058         3.167057         2.855475
 H        -1.888707         1.550452         2.859122
 H         0.104444         2.775207         0.596844
