19
Iteration:   328
 O         0.394865        -0.233363         0.300696
 C        -0.621643         0.714193         0.181231
 C        -2.112423         0.463460         0.598376
 C        -2.202916         2.020110         0.373710
 C        -2.042537         2.233053        -1.118771
 C        -0.688610         1.389844        -1.191028
 O        -2.762719         3.017768         1.197694
 C        -1.619781         2.469053         2.221020
 C        -0.670647         2.076823         0.931151
 H         0.183692        -1.085378        -0.141781
 H        -2.607305        -0.235970        -0.018806
 H        -2.316819         0.255806         1.677628
 H        -2.804045         2.033948        -1.828598
 H        -1.787089         3.357338        -1.270003
 H        -0.704665         0.674871        -2.014331
 H         0.308633         1.868421        -1.392356
 H        -1.206176         3.287830         2.837108
 H        -2.164205         1.695652         2.823187
 H        -0.088206         2.854375         0.541320
