19
Iteration:  3754charge 0 multiplicity 1
 O         0.227869        -0.251816         0.363116
 C        -0.595422         0.847550         0.116775
 C        -2.133305         0.627781         0.248866
 C        -2.078744         2.126005         0.367506
 C        -1.732753         2.506708        -1.100595
 C        -0.574691         1.401624        -1.351111
 O        -2.803085         2.787867         1.356806
 C        -1.866843         2.194551         2.306213
 C        -0.757938         1.949642         1.155599
 H         1.075546        -0.018579        -0.064887
 H        -2.685336         0.059391        -0.589515
 H        -2.427446         0.176869         1.204619
 H        -2.526202         2.291950        -1.749658
 H        -1.395785         3.537705        -1.126453
 H        -1.132665         0.651586        -1.791713
 H         0.394402         1.501105        -1.942900
 H        -1.496562         2.995410         2.948318
 H        -2.220771         1.255763         2.807455
 H        -0.087802         2.774122         1.009681
