19
Iteration:  1322
 O         0.292884        -0.259500         0.368919
 C        -0.663623         0.697433         0.235780
 C        -2.211636         0.481530         0.388503
 C        -2.092947         2.099528         0.289618
 C        -1.746133         2.472788        -1.256436
 C        -0.600806         1.356860        -1.209137
 O        -2.847097         2.733624         1.339366
 C        -1.708307         2.387880         2.274079
 C        -0.799285         2.179024         1.065365
 H         0.567754        -0.316534        -0.580339
 H        -2.629904        -0.120027        -0.455447
 H        -2.394495         0.204717         1.442204
 H        -2.658460         2.343861        -1.894950
 H        -1.278855         3.477486        -1.341478
 H        -0.597757         0.590821        -2.108327
 H         0.304852         1.943146        -1.302404
 H        -1.407224         3.395396         2.770362
 H        -1.808518         1.625608         2.990295
 H         0.056095         2.811453         0.839261
