19
Iteration:   731charge 0 multiplicity 1
 O         0.389724        -0.288588         0.244029
 C        -0.692159         0.664064         0.240206
 C        -2.142840         0.459188         0.545780
 C        -2.013782         2.139079         0.263129
 C        -1.854815         2.405955        -1.138929
 C        -0.772887         1.350643        -1.247242
 O        -2.865202         2.800633         1.293179
 C        -1.733002         2.571756         2.147462
 C        -0.671381         2.053163         1.046310
 H         0.767931        -0.205564         1.128841
 H        -2.600194        -0.154955        -0.261656
 H        -2.438277         0.317835         1.579641
 H        -2.715069         1.911293        -1.560230
 H        -1.635731         3.403993        -1.612224
 H        -0.987754         0.546271        -1.994973
 H         0.180692         1.777788        -1.480645
 H        -1.221845         3.406714         2.523225
 H        -1.908894         1.917396         3.049591
 H         0.155501         2.804926         0.881616
