19
Iteration:  4456
 O         0.215892        -0.298203         0.443562
 C        -0.612126         0.778626         0.168696
 C        -2.116845         0.568134         0.162286
 C        -2.158394         2.079933         0.351492
 C        -1.765799         2.502293        -1.103257
 C        -0.528853         1.495490        -1.336523
 O        -2.774702         2.693812         1.394890
 C        -1.690146         2.290493         2.262155
 C        -0.814284         2.056891         1.022620
 H        -0.305294        -0.854758         1.030203
 H        -2.737187         0.149605        -0.657657
 H        -2.368010         0.051847         1.107128
 H        -2.652303         2.567689        -1.831741
 H        -1.393372         3.469564        -0.934381
 H        -1.001632         0.929998        -2.250860
 H         0.451491         2.013551        -1.546032
 H        -1.401003         3.300267         2.749782
 H        -1.856710         1.461426         2.888662
 H        -0.133549         2.959354         0.839682
