19
Iteration:   671
 O         0.356881        -0.160003         0.664224
 C        -0.687198         0.783078         0.188154
 C        -2.176543         0.526362         0.415036
 C        -2.064427         2.093275         0.246476
 C        -2.059522         2.369701        -1.320633
 C        -0.730155         1.362186        -1.304437
 O        -2.735352         2.749418         1.347172
 C        -1.526669         2.395926         2.205409
 C        -0.664911         2.097196         0.916810
 H         0.052106        -1.088253         0.578338
 H        -2.719324        -0.074205        -0.332914
 H        -2.550290         0.259980         1.426655
 H        -2.937781         1.933147        -1.902203
 H        -1.849287         3.365607        -1.691026
 H        -0.987426         0.640121        -2.109663
 H         0.137559         2.065501        -1.542697
 H        -1.156009         3.320721         2.846532
 H        -1.737269         1.495533         2.874087
 H         0.144582         2.771552         0.655150
