19
Iteration:   205
 O         0.368897        -0.276719         0.207408
 C        -0.586532         0.750059         0.229890
 C        -2.183926         0.543532         0.345051
 C        -2.128082         2.036232         0.372618
 C        -2.007416         2.199013        -1.114067
 C        -0.646012         1.271710        -1.214237
 O        -2.757132         2.949910         1.329485
 C        -1.684299         2.554643         2.244309
 C        -0.735312         2.100490         1.063375
 H         1.061976         0.040291         0.819655
 H        -2.681117         0.172542        -0.573533
 H        -2.350605        -0.013343         1.253119
 H        -2.909618         1.822709        -1.672707
 H        -1.725504         3.214388        -1.476592
 H        -0.710531         0.196734        -1.716586
 H         0.181367         1.836137        -1.592129
 H        -1.314763         3.422315         2.852432
 H        -2.053488         1.714119         2.942593
 H        -0.205227         3.004122         0.585150
