19
Iteration:  4495
 O         0.296533        -0.242970         0.364656
 C        -0.678367         0.724932         0.199403
 C        -2.263982         0.601919         0.259082
 C        -2.117747         2.184912         0.243734
 C        -1.799409         2.516452        -1.160146
 C        -0.559956         1.501024        -1.250346
 O        -2.754544         2.741312         1.395147
 C        -1.697825         2.213778         2.241256
 C        -0.798073         1.965224         1.057627
 H         0.541436        -0.570347         1.250458
 H        -2.635034         0.110983        -0.664925
 H        -2.615123         0.099723         1.143436
 H        -2.429490         2.056165        -1.891999
 H        -1.375709         3.553530        -1.372749
 H        -0.523589         0.765403        -2.041545
 H         0.244537         2.215502        -1.272258
 H        -1.410154         2.912905         2.990661
 H        -1.996773         1.280094         2.830461
 H        -0.069958         2.751942         0.919254
