19
Iteration:  1565charge 0 multiplicity 1
 O         0.293816        -0.243661         0.427422
 C        -0.666039         0.720939         0.182454
 C        -2.190287         0.502299         0.308307
 C        -2.089092         2.050882         0.292930
 C        -1.790075         2.402183        -1.116355
 C        -0.611267         1.397051        -1.217901
 O        -2.899174         2.763251         1.396849
 C        -1.619257         2.523921         2.152971
 C        -0.786528         1.999918         1.031990
 H         0.673789        -0.536583        -0.398543
 H        -2.682587        -0.022925        -0.505419
 H        -2.565429         0.099292         1.289627
 H        -2.704779         2.339921        -1.661719
 H        -1.354129         3.456103        -1.319415
 H        -0.702225         0.645667        -1.988367
 H         0.252467         2.106773        -1.462439
 H        -1.189541         3.537577         2.665425
 H        -1.665869         1.876018         3.009519
 H         0.067214         2.660024         0.717044
