19
Iteration:  3980
 O         0.247310        -0.263587         0.224590
 C        -0.669095         0.747256         0.236868
 C        -2.092393         0.535936         0.171507
 C        -2.117727         2.080490         0.306260
 C        -1.780698         2.554751        -1.120592
 C        -0.580114         1.460571        -1.178039
 O        -2.812643         2.705186         1.363834
 C        -1.755982         2.408785         2.289184
 C        -0.752063         1.947773         1.100586
 H         0.458925        -0.517909         1.145431
 H        -2.596085        -0.038223        -0.621595
 H        -2.475583        -0.036905         0.978984
 H        -2.554214         2.537981        -1.844048
 H        -1.494897         3.640954        -0.989003
 H        -0.615622         0.714494        -2.045760
 H         0.475398         1.965926        -1.165907
 H        -1.478027         3.204382         2.923993
 H        -2.254500         1.582630         2.927909
 H        -0.025085         2.697728         0.737236
