19
Iteration:   156charge 0 multiplicity 1
 O         0.231031        -0.325669         0.538516
 C        -0.577580         0.769201         0.130536
 C        -2.121082         0.482534         0.502216
 C        -2.160935         1.979265         0.331875
 C        -1.903324         2.403217        -1.068802
 C        -0.678311         1.448485        -1.330335
 O        -2.859966         2.703029         1.374202
 C        -1.605053         2.571383         2.081669
 C        -0.659575         2.118995         0.845655
 H         0.921907        -0.516314        -0.137330
 H        -2.790792         0.012905        -0.281452
 H        -2.293918         0.110703         1.579836
 H        -2.621695         2.156757        -1.837132
 H        -1.657288         3.474699        -1.051248
 H        -0.936276         0.837269        -2.119274
 H         0.352540         1.939608        -1.437157
 H        -1.302334         3.488266         2.593520
 H        -1.678010         1.800758         2.857206
 H        -0.047263         3.019026         0.461911
