19
Iteration:  4743
 O         0.258524        -0.226293         0.602156
 C        -0.625909         0.792554         0.090267
 C        -2.178003         0.504187         0.118771
 C        -2.066216         2.053862         0.251794
 C        -1.814449         2.573983        -1.163714
 C        -0.580037         1.532201        -1.307934
 O        -2.784790         2.733357         1.416928
 C        -1.719427         2.212797         2.290351
 C        -0.773117         2.001242         1.058136
 H        -0.055999        -1.084041         0.211559
 H        -2.572677         0.240516        -0.881901
 H        -2.711732         0.113663         1.044211
 H        -2.631607         2.556936        -1.909034
 H        -1.360717         3.591823        -1.226332
 H        -0.654254         0.809221        -2.060786
 H         0.403428         2.130593        -1.257956
 H        -1.375785         3.006176         3.014928
 H        -2.088568         1.303141         2.806386
 H        -0.023656         2.815268         1.048113
