19
Iteration:  3262
 O         0.323903        -0.300058         0.185300
 C        -0.602326         0.744132         0.142907
 C        -2.181130         0.599739         0.389918
 C        -2.089950         2.209979         0.329998
 C        -1.708592         2.562998        -1.146211
 C        -0.576350         1.380653        -1.206815
 O        -2.844217         2.743910         1.359564
 C        -1.764187         2.238246         2.309787
 C        -0.834045         2.050666         1.046676
 H         0.385202        -0.636561         1.092347
 H        -2.834401         0.063323        -0.375453
 H        -2.664369         0.226985         1.324896
 H        -2.509998         2.307672        -1.877371
 H        -1.398750         3.682536        -1.387937
 H        -0.910798         0.664171        -1.969791
 H         0.455718         1.682200        -1.436361
 H        -1.498443         2.962043         3.055667
 H        -2.086486         1.270313         2.580775
 H        -0.110594         2.886665         1.011154
