19
Iteration:  3062
 O         0.231706        -0.274078         0.405881
 C        -0.629422         0.799380         0.090399
 C        -2.114823         0.616706         0.310820
 C        -2.062543         2.090287         0.322263
 C        -1.848657         2.440399        -1.125207
 C        -0.600165         1.499051        -1.310097
 O        -2.845540         2.706665         1.386205
 C        -1.658991         2.279856         2.260524
 C        -0.698243         2.089210         1.029166
 H        -0.268348        -1.108222         0.401438
 H        -2.818270         0.144914        -0.326663
 H        -2.176784         0.263653         1.416680
 H        -2.604199         2.129561        -1.925716
 H        -1.775133         3.484135        -1.329907
 H        -0.860482         0.689712        -2.019423
 H         0.385742         1.868970        -1.577018
 H        -1.449186         3.125732         2.952570
 H        -1.847970         1.459101         2.920395
 H         0.013396         2.891274         1.017844
