19
Iteration:  1221charge 0 multiplicity 1
 O         0.384725        -0.146735         0.350987
 C        -0.636433         0.775783         0.189832
 C        -2.208944         0.478383         0.375824
 C        -2.129817         2.113548         0.267188
 C        -1.757715         2.440289        -1.191064
 C        -0.697165         1.350848        -1.270464
 O        -2.733300         2.803779         1.376489
 C        -1.741851         2.349296         2.211413
 C        -0.807369         2.045572         1.044995
 H         0.424636        -0.761985         1.084166
 H        -2.985840         0.072499        -0.294591
 H        -2.525699         0.132929         1.367739
 H        -2.532154         2.230434        -1.980088
 H        -1.378856         3.455672        -1.278550
 H        -0.933318         0.499777        -1.965176
 H         0.301379         1.538366        -1.519756
 H        -1.493324         3.137515         2.873291
 H        -2.087572         1.467438         2.783530
 H        -0.034380         2.725425         0.891118
