19
Iteration:  4534
 O         0.382898        -0.307054         0.132722
 C        -0.611359         0.739689         0.229362
 C        -2.117976         0.489785         0.306857
 C        -2.109241         2.095627         0.307683
 C        -1.663321         2.574265        -1.110207
 C        -0.673684         1.429580        -1.233800
 O        -2.847350         2.842593         1.334767
 C        -1.846304         2.356518         2.296148
 C        -0.835375         1.963750         1.137357
 H         0.257135        -0.731509         1.000236
 H        -2.472402        -0.058272        -0.543242
 H        -2.578226         0.142783         1.307076
 H        -2.611717         2.562412        -1.649763
 H        -1.263506         3.584094        -1.245029
 H        -0.780956         0.619736        -1.961842
 H         0.374845         1.843250        -1.441347
 H        -1.385080         3.041832         3.041086
 H        -2.364810         1.554438         2.837530
 H        -0.035197         2.730089         1.101385
