19
Iteration:  3971charge 0 multiplicity 1
 O         0.242228        -0.323803         0.246245
 C        -0.603477         0.767461         0.200460
 C        -2.131788         0.513168         0.205956
 C        -2.180782         2.045413         0.310351
 C        -1.758211         2.536242        -1.038053
 C        -0.564325         1.514735        -1.173581
 O        -2.823406         2.712070         1.344785
 C        -1.745656         2.366551         2.255647
 C        -0.786083         2.051368         1.043063
 H         0.139343        -0.755626         1.116744
 H        -2.413517         0.016723        -0.760301
 H        -2.425255         0.066671         1.146748
 H        -2.440744         2.543609        -1.853821
 H        -1.222839         3.575811        -1.007078
 H        -0.635145         0.722722        -1.905856
 H         0.374029         2.067506        -1.389996
 H        -1.351576         3.170723         2.797698
 H        -1.866471         1.541430         2.957151
 H        -0.200891         2.940510         0.927605
