19
Iteration:  3652
 O         0.242191        -0.309684         0.352431
 C        -0.590939         0.755140         0.225394
 C        -2.154453         0.575792         0.327297
 C        -2.184468         2.186791         0.248976
 C        -1.699408         2.613681        -1.150025
 C        -0.643068         1.417253        -1.285358
 O        -2.871013         2.756284         1.378468
 C        -1.717841         2.125358         2.243748
 C        -0.729265         2.058092         1.045334
 H         1.038644        -0.057300         0.846863
 H        -2.402521        -0.188468        -0.488478
 H        -2.728640         0.178032         1.239104
 H        -2.513703         2.772516        -1.887397
 H        -1.281065         3.644220        -1.041106
 H        -0.833292         0.720121        -2.185084
 H         0.274324         1.931098        -1.582286
 H        -1.359890         2.731332         3.128774
 H        -2.146456         1.148808         2.641168
 H         0.059526         2.832478         0.906392
