19
Iteration:  2279
 O         0.328474        -0.301243         0.370749
 C        -0.663205         0.667426         0.177589
 C        -2.132771         0.530542         0.467734
 C        -2.033871         2.051544         0.275012
 C        -1.908200         2.492270        -1.139210
 C        -0.705590         1.395203        -1.240615
 O        -2.754025         2.781336         1.336261
 C        -1.677757         2.476234         2.159383
 C        -0.761117         2.104542         1.062365
 H         0.257751        -0.979949        -0.337389
 H        -2.788768        -0.139496        -0.196710
 H        -2.322693         0.340378         1.530517
 H        -2.772654         2.295313        -1.782388
 H        -1.456422         3.512306        -1.335063
 H        -0.893745         0.752051        -2.100407
 H         0.157481         2.023878        -1.473938
 H        -1.526412         3.336975         2.847855
 H        -1.858765         1.618895         2.848186
 H         0.027691         2.591787         0.682758
