19
Iteration:  1783
 O         0.210992        -0.272946         0.539851
 C        -0.677024         0.758542         0.093701
 C        -2.171652         0.479588         0.325519
 C        -2.168786         2.091277         0.288332
 C        -1.839683         2.457590        -1.092440
 C        -0.649377         1.366442        -1.268082
 O        -2.820613         2.743392         1.330198
 C        -1.549401         2.415412         2.218634
 C        -0.702687         2.138628         1.017272
 H         0.957940        -0.512698        -0.036502
 H        -2.717727        -0.226608        -0.341697
 H        -2.384835         0.198891         1.328532
 H        -2.558949         2.263347        -1.879857
 H        -1.334975         3.488882        -1.267486
 H        -0.987945         0.769963        -2.106084
 H         0.353943         1.832669        -1.526596
 H        -1.528248         3.461663         2.548702
 H        -1.631643         1.585199         2.874457
 H         0.101312         2.766468         0.638788
