19
Iteration:  2112
 O         0.372442        -0.284026         0.253443
 C        -0.658925         0.741803         0.155324
 C        -2.075672         0.502571         0.397868
 C        -2.114315         2.137443         0.333122
 C        -1.888977         2.318843        -1.122933
 C        -0.670245         1.323609        -1.262088
 O        -2.744068         2.982124         1.344373
 C        -1.732664         2.401701         2.230653
 C        -0.826122         2.061313         1.032468
 H         0.286154        -0.722452         1.129351
 H        -2.657295         0.143494        -0.427225
 H        -2.240302         0.019355         1.385584
 H        -2.745471         2.069247        -1.818916
 H        -1.570252         3.335052        -1.246132
 H        -0.925185         0.485121        -1.910686
 H         0.217668         1.887479        -1.573679
 H        -1.176981         3.039973         2.982660
 H        -2.191769         1.586303         2.846276
 H        -0.023221         2.794483         1.023791
