19
Iteration:  3232
 O         0.350980        -0.150220         0.429934
 C        -0.599889         0.734404         0.147852
 C        -2.203764         0.509118         0.175897
 C        -2.151164         2.085513         0.350286
 C        -1.792241         2.555446        -1.103308
 C        -0.654512         1.457976        -1.324898
 O        -2.713090         2.809445         1.383033
 C        -1.722699         2.321918         2.266576
 C        -0.834332         1.869672         1.070557
 H        -0.012456        -1.043951         0.595700
 H        -2.574252         0.248828        -0.795339
 H        -2.692262        -0.094047         1.044398
 H        -2.553062         2.411722        -1.818737
 H        -1.428932         3.579833        -1.021969
 H        -0.971996         0.707305        -2.023460
 H         0.382755         1.770802        -1.639905
 H        -1.289323         3.016794         2.984639
 H        -2.131325         1.442375         2.869153
 H        -0.006003         2.658180         0.943570
