19
Iteration:  1637charge 0 multiplicity 1
 O         0.385836        -0.236655         0.526852
 C        -0.641148         0.735675         0.211368
 C        -2.182768         0.567585         0.296772
 C        -2.141850         2.137068         0.283796
 C        -1.891815         2.397321        -1.208300
 C        -0.661577         1.375771        -1.295177
 O        -2.754022         2.804893         1.382351
 C        -1.680983         2.361102         2.240592
 C        -0.738869         2.057206         0.974770
 H        -0.020127        -1.022335         0.130542
 H        -2.826070         0.058064        -0.448881
 H        -2.478967         0.232564         1.320145
 H        -2.793545         2.344545        -1.952046
 H        -1.399846         3.400063        -1.358349
 H        -0.687639         0.573825        -2.124112
 H         0.185241         2.045615        -1.439573
 H        -1.360565         3.087901         3.002755
 H        -1.889995         1.314413         2.708954
 H        -0.142356         2.943504         0.714087
