19
Iteration:  1074
 O         0.410140        -0.196516         0.346827
 C        -0.595590         0.780643         0.166672
 C        -2.289332         0.545419         0.342004
 C        -2.228289         2.018311         0.342919
 C        -1.718460         2.445732        -1.215193
 C        -0.664248         1.330602        -1.229572
 O        -2.851160         2.804473         1.356888
 C        -1.688903         2.294921         2.224173
 C        -0.766512         2.086733         1.030329
 H         0.667288        -0.397941         1.248229
 H        -2.775066        -0.012227        -0.426166
 H        -2.550223         0.313457         1.340584
 H        -2.417371         2.522149        -2.067416
 H        -1.198775         3.413846        -1.210496
 H        -0.909693         0.509172        -1.805629
 H         0.323350         1.764898        -1.542905
 H        -1.215258         3.248458         2.639376
 H        -2.039843         1.633956         3.035139
 H         0.004722         2.893457         0.727647
