19
Iteration:  4719charge 0 multiplicity 1
 O         0.190027        -0.372042         0.531631
 C        -0.627628         0.785860         0.133599
 C        -2.115220         0.485578         0.210293
 C        -2.123256         2.101335         0.312917
 C        -1.823517         2.516421        -1.070835
 C        -0.479171         1.655475        -1.256751
 O        -2.840964         2.776681         1.346164
 C        -1.660084         2.238783         2.211311
 C        -0.804341         2.033345         1.029463
 H         0.164997        -0.893172        -0.291126
 H        -2.564263         0.021773        -0.658483
 H        -2.416765         0.072709         1.255907
 H        -2.413869         2.105242        -1.924034
 H        -1.694286         3.569363        -1.321503
 H        -0.679561         1.010518        -2.096320
 H         0.473071         2.249604        -1.333305
 H        -1.429844         3.093147         2.982885
 H        -2.030848         1.303960         2.652243
 H         0.021890         2.836581         0.997263
