19
Iteration:   720
 O         0.415255        -0.238542         0.272208
 C        -0.665081         0.771558         0.279436
 C        -2.168896         0.466935         0.485568
 C        -2.118020         2.102636         0.335433
 C        -1.876203         2.342946        -1.187004
 C        -0.712968         1.287307        -1.280162
 O        -2.781897         2.839841         1.284625
 C        -1.654121         2.533176         2.219890
 C        -0.765439         2.084686         1.015992
 H         0.526966        -0.681360         1.122320
 H        -2.736247        -0.168786        -0.230836
 H        -2.425942         0.142350         1.493094
 H        -2.771083         2.136889        -1.773583
 H        -1.586836         3.412425        -1.422935
 H        -1.087801         0.585760        -2.054776
 H         0.222041         1.669489        -1.638677
 H        -1.471010         3.440644         2.701177
 H        -1.951778         1.696376         2.855281
 H         0.102126         2.725804         0.742403
