19
Iteration:  3474charge 0 multiplicity 1
 O         0.199624        -0.348347         0.383898
 C        -0.612336         0.766674         0.156818
 C        -2.142354         0.576306         0.238710
 C        -2.043282         2.177696         0.274239
 C        -1.788400         2.571023        -1.103948
 C        -0.607656         1.467487        -1.194186
 O        -2.859828         2.720100         1.356490
 C        -1.715302         2.178926         2.254341
 C        -0.746143         2.096348         1.078426
 H         1.087127         0.043936         0.450861
 H        -2.613137         0.125553        -0.630795
 H        -2.499564         0.069921         1.095024
 H        -2.486139         2.223389        -1.904449
 H        -1.485786         3.575959        -1.290224
 H        -1.053612         0.753380        -1.963986
 H         0.322088         1.799912        -1.587711
 H        -1.435451         2.929766         2.995873
 H        -1.961601         1.204148         2.641515
 H        -0.031125         2.955316         1.036936
