19
Iteration:  4709
 O         0.219088        -0.370174         0.441023
 C        -0.589726         0.753461         0.108141
 C        -2.146684         0.534524         0.252321
 C        -2.106821         2.086211         0.237575
 C        -1.806066         2.531910        -1.189433
 C        -0.520190         1.595680        -1.148398
 O        -2.865089         2.768829         1.365469
 C        -1.739913         2.274629         2.282064
 C        -0.745767         2.045894         1.051712
 H         0.425833        -0.988486        -0.297824
 H        -2.758839        -0.014129        -0.458463
 H        -2.537276         0.087387         1.232510
 H        -2.699156         2.227094        -1.711012
 H        -1.614923         3.610161        -1.269586
 H        -0.380886         1.007847        -2.014223
 H         0.486444         2.137262        -1.077130
 H        -1.284605         3.059115         2.987269
 H        -2.006092         1.360422         2.832321
 H        -0.016794         2.912361         0.885641
