19
Iteration:   187charge 0 multiplicity 1
 O         0.266079        -0.347756         0.214325
 C        -0.642002         0.779911         0.239608
 C        -2.085905         0.429621         0.494932
 C        -2.136691         2.110600         0.303479
 C        -1.878615         2.252981        -1.250820
 C        -0.677098         1.359330        -1.232910
 O        -2.846826         2.807421         1.390909
 C        -1.643036         2.634565         2.254148
 C        -0.738302         2.129726         1.032318
 H         1.176047        -0.076482         0.420863
 H        -2.490956        -0.124694        -0.298886
 H        -2.399629         0.230939         1.542348
 H        -2.630075         1.795676        -1.845928
 H        -1.761817         3.301449        -1.642295
 H        -0.792557         0.657040        -1.994820
 H         0.310968         1.839201        -1.381257
 H        -1.300382         3.583413         2.588017
 H        -1.847343         1.945193         3.030864
 H         0.059146         2.775215         0.944673
