19
Iteration:     9charge 0 multiplicity 1
 O         0.350318        -0.221626         0.315848
 C        -0.703119         0.784872         0.250193
 C        -2.120464         0.471065         0.431574
 C        -2.233622         2.086588         0.296968
 C        -1.902953         2.390165        -1.237390
 C        -0.639693         1.381868        -1.227503
 O        -2.792807         2.718813         1.356291
 C        -1.605065         2.485554         2.218753
 C        -0.734543         2.077473         1.012912
 H         0.427357        -0.532011         1.219645
 H        -2.472091        -0.181172        -0.383328
 H        -2.416685         0.194800         1.423293
 H        -2.502648         2.107341        -2.171299
 H        -1.563276         3.411957        -1.393192
 H        -0.762022         0.602752        -2.086099
 H         0.223577         1.930961        -1.401253
 H        -1.435296         3.590616         2.441988
 H        -1.764194         1.713976         3.022168
 H         0.036226         2.720310         0.764642
