19
Iteration:  3076
 O         0.274824        -0.257461         0.364076
 C        -0.629617         0.818343         0.204065
 C        -2.128416         0.530621         0.290066
 C        -2.087715         2.254000         0.286585
 C        -1.837681         2.496729        -1.239280
 C        -0.625255         1.369237        -1.297513
 O        -2.796544         2.661013         1.482532
 C        -1.680630         2.309072         2.286567
 C        -0.745649         2.118734         1.042317
 H        -0.335667        -0.936902         0.683276
 H        -2.481273         0.003322        -0.691473
 H        -2.596252         0.056023         1.104843
 H        -2.739276         2.194350        -1.665078
 H        -1.457455         3.486738        -1.583666
 H        -0.833720         0.586152        -2.056648
 H         0.226813         1.944261        -1.567437
 H        -1.364991         3.013804         3.047038
 H        -1.909132         1.272425         2.669564
 H         0.082747         2.814252         0.784627
