19
Iteration:   743charge 0 multiplicity 1
 O         0.334295        -0.323167         0.260394
 C        -0.622173         0.681657         0.178785
 C        -2.099046         0.555392         0.487714
 C        -2.082849         2.117735         0.352863
 C        -1.941320         2.356039        -1.187932
 C        -0.701456         1.323296        -1.215672
 O        -2.851925         2.768381         1.267479
 C        -1.675851         2.590040         2.202391
 C        -0.691511         2.012163         1.068182
 H         1.019298         0.019740         0.892124
 H        -2.839741        -0.028212        -0.066294
 H        -2.352098         0.337645         1.520055
 H        -2.815563         2.298170        -1.898364
 H        -1.610465         3.412198        -1.294057
 H        -0.795634         0.491528        -1.991727
 H         0.271480         1.829238        -1.375286
 H        -1.448175         3.630605         2.350970
 H        -2.076147         2.091928         3.078085
 H         0.118189         2.793368         0.832985
