19
Iteration:  3275
 O         0.201754        -0.320997         0.137185
 C        -0.684010         0.782644         0.267691
 C        -2.166828         0.616820         0.302239
 C        -2.107475         2.091639         0.281617
 C        -1.719826         2.464386        -1.104562
 C        -0.543351         1.472728        -1.176875
 O        -2.821128         2.717615         1.377677
 C        -1.780351         2.279063         2.233403
 C        -0.722020         2.095956         1.096568
 H         0.748102        -0.451792         0.943690
 H        -2.578140         0.177231        -0.592385
 H        -2.408531         0.128795         1.346645
 H        -2.490746         2.246165        -1.814255
 H        -1.350929         3.545896        -1.170956
 H        -0.781333         0.685927        -1.878667
 H         0.482210         1.844044        -1.474638
 H        -1.575427         3.061883         2.945490
 H        -2.016451         1.460907         2.955800
 H        -0.019142         2.959585         0.830430
