19
Iteration:  1792charge 0 multiplicity 1
 O         0.140056        -0.287453         0.580461
 C        -0.649034         0.764385         0.183630
 C        -2.070542         0.547162         0.303784
 C        -2.108800         2.134528         0.274303
 C        -1.858862         2.461916        -1.145913
 C        -0.691623         1.400877        -1.293972
 O        -2.900983         2.652588         1.398963
 C        -1.565098         2.430355         2.167563
 C        -0.643185         2.028237         0.912815
 H         0.849972        -0.277820        -0.083186
 H        -2.684721        -0.087464        -0.384561
 H        -2.336864         0.339320         1.346815
 H        -2.634268         2.481181        -1.906241
 H        -1.294122         3.491892        -1.267392
 H        -0.877862         0.625564        -2.064503
 H         0.370329         1.780125        -1.493905
 H        -1.299087         3.463850         2.523557
 H        -1.578069         1.920375         3.146974
 H         0.112105         2.847673         0.832140
