19
Iteration:  1151charge 0 multiplicity 1
 O         0.263744        -0.317751         0.285392
 C        -0.682265         0.814391         0.183588
 C        -2.120956         0.534377         0.472856
 C        -2.144829         2.136674         0.266672
 C        -1.822133         2.349827        -1.280489
 C        -0.557288         1.459739        -1.154998
 O        -2.903515         2.700764         1.390272
 C        -1.627015         2.447461         2.182703
 C        -0.736730         2.141876         1.048564
 H        -0.132703        -0.895542         0.946832
 H        -2.593878         0.009623        -0.338443
 H        -2.284133        -0.042251         1.352387
 H        -2.537990         1.939785        -1.963264
 H        -1.452961         3.365754        -1.515480
 H        -0.367102         0.808417        -1.931054
 H         0.351522         2.131955        -1.247881
 H        -1.302604         3.279578         2.858017
 H        -1.877080         1.502188         2.759756
 H         0.141311         2.808575         0.776834
