19
Iteration:  1455
 O         0.376540        -0.270522         0.380251
 C        -0.708770         0.717791         0.182073
 C        -2.152497         0.472513         0.346400
 C        -2.110406         2.054643         0.328473
 C        -1.832085         2.445958        -1.065028
 C        -0.606429         1.416260        -1.237954
 O        -2.810257         2.813371         1.266814
 C        -1.707691         2.431147         2.186422
 C        -0.728396         2.085264         1.068659
 H        -0.041672        -1.125917         0.099682
 H        -2.743908        -0.157345        -0.343006
 H        -2.464703         0.239081         1.366226
 H        -2.615809         2.164156        -1.753114
 H        -1.626484         3.610951        -1.061063
 H        -0.825321         0.789584        -2.094589
 H         0.408307         1.911043        -1.451980
 H        -1.361157         3.401884         2.739403
 H        -2.062812         1.641476         2.790119
 H        -0.145138         3.003404         0.785753
