19
Iteration:  4749charge 0 multiplicity 1
 O         0.318317        -0.217944         0.586732
 C        -0.655890         0.775382         0.077343
 C        -2.209336         0.498809         0.099372
 C        -2.066930         2.147634         0.283942
 C        -1.800056         2.607469        -1.156958
 C        -0.586442         1.493649        -1.260172
 O        -2.801232         2.706039         1.395903
 C        -1.685682         2.202981         2.275790
 C        -0.815507         2.002072         1.070869
 H        -0.047861        -1.066787         0.293227
 H        -2.646765         0.186694        -0.829903
 H        -2.683462         0.272092         1.070484
 H        -2.440971         2.392359        -2.050337
 H        -1.343193         3.579932        -1.286484
 H        -0.751164         0.771233        -2.146045
 H         0.358233         1.961306        -1.368332
 H        -1.464851         2.916517         3.115766
 H        -2.019109         1.341098         2.865143
 H         0.026398         2.748715         1.078477
