19
Iteration:  2598charge 0 multiplicity 1
 O         0.401596        -0.166677         0.455279
 C        -0.626884         0.743722         0.147346
 C        -2.174916         0.499821         0.389945
 C        -2.202245         2.084607         0.284926
 C        -1.870214         2.437493        -1.159402
 C        -0.825778         1.254576        -1.304182
 O        -2.651182         2.928850         1.402847
 C        -1.641701         2.340826         2.239577
 C        -0.788275         2.043405         0.981033
 H         0.628593        -0.564947        -0.417881
 H        -2.709624        -0.073453        -0.398670
 H        -2.384112         0.172077         1.477738
 H        -2.764406         2.327402        -1.817368
 H        -1.423781         3.474609        -1.168202
 H        -1.169492         0.377844        -1.942883
 H         0.110950         1.597119        -1.692424
 H        -1.353847         3.176823         2.849173
 H        -1.962040         1.430766         2.852460
 H         0.007337         2.689780         0.723605
