19
Iteration:  3011charge 0 multiplicity 1
 O         0.375737        -0.232619         0.305978
 C        -0.622429         0.751676         0.194819
 C        -2.290586         0.513076         0.269348
 C        -2.147679         2.082483         0.363160
 C        -1.818068         2.403092        -1.097533
 C        -0.639696         1.379760        -1.231728
 O        -2.783051         2.838132         1.365637
 C        -1.634165         2.438625         2.313877
 C        -0.812043         1.956210         1.039995
 H         0.682041        -0.394229        -0.615169
 H        -2.652789         0.087021        -0.720589
 H        -2.678906        -0.030122         1.092455
 H        -2.638815         2.175812        -1.733667
 H        -1.362721         3.396482        -1.345577
 H        -0.706504         0.574397        -1.995604
 H         0.294421         1.926816        -1.333103
 H        -1.189665         3.343474         2.756296
 H        -2.117609         1.741516         3.092365
 H        -0.116507         2.838038         0.979238
