19
Iteration:  3089charge 0 multiplicity 1
 O         0.333847        -0.247336         0.349222
 C        -0.661757         0.785776         0.234671
 C        -2.182409         0.563173         0.193885
 C        -2.106325         2.172288         0.272575
 C        -1.848392         2.460919        -1.246410
 C        -0.700436         1.409782        -1.230457
 O        -2.811192         2.759825         1.476707
 C        -1.600026         2.198115         2.291390
 C        -0.763315         2.121158         1.011645
 H         0.153815        -0.941831         1.023383
 H        -2.539984         0.025020        -0.779370
 H        -2.670038         0.265218         1.070734
 H        -2.550544         2.340400        -2.031201
 H        -1.340713         3.481716        -1.348818
 H        -0.795845         0.528798        -1.866401
 H         0.360942         1.756104        -1.437811
 H        -1.349748         3.072528         2.898963
 H        -1.790442         1.358556         3.076398
 H        -0.068379         3.029428         0.989697
