19
Iteration:  4882
 O         0.227168        -0.312887         0.487899
 C        -0.592069         0.784538         0.210748
 C        -2.174810         0.562157         0.150155
 C        -2.105603         2.170552         0.253812
 C        -1.705507         2.622276        -1.095984
 C        -0.585779         1.476371        -1.318754
 O        -2.823254         2.683802         1.366072
 C        -1.787109         2.128988         2.236461
 C        -0.801505         2.071377         1.124681
 H         1.169824        -0.087234         0.667098
 H        -2.487463         0.080044        -0.713538
 H        -2.628367         0.025304         1.038442
 H        -2.520717         2.602179        -1.839257
 H        -1.286509         3.617101        -1.234950
 H        -1.064933         0.845746        -2.098897
 H         0.426074         1.787984        -1.596611
 H        -1.491578         2.948545         2.968166
 H        -2.097667         1.169690         2.592781
 H        -0.038866         2.922081         0.964228
