19
Iteration:  3033charge 0 multiplicity 1
 O         0.353574        -0.298378         0.361343
 C        -0.711098         0.666835         0.188504
 C        -2.155669         0.412059         0.317931
 C        -2.128914         2.005194         0.301186
 C        -1.890958         2.526058        -1.128065
 C        -0.613151         1.555848        -1.206622
 O        -2.764907         2.837620         1.388149
 C        -1.656208         2.474180         2.206980
 C        -0.789733         2.012941         1.007999
 H         0.228672        -0.948678        -0.347690
 H        -2.809111        -0.165388        -0.434023
 H        -2.360458         0.112688         1.287701
 H        -2.556596         2.214115        -1.880308
 H        -1.726668         3.644905        -1.117782
 H        -0.651026         0.845122        -2.073321
 H         0.351493         2.021432        -1.131457
 H        -1.281634         3.270242         2.864646
 H        -1.952158         1.511680         2.791834
 H         0.108599         2.677436         0.935392
