19
Iteration:  1199charge 0 multiplicity 1
 O         0.383648        -0.255986         0.371996
 C        -0.623880         0.709219         0.212041
 C        -2.094435         0.469274         0.227368
 C        -2.139418         2.073112         0.268671
 C        -1.865949         2.437622        -1.074309
 C        -0.687044         1.367677        -1.234405
 O        -2.898066         2.881319         1.304616
 C        -1.641775         2.448065         2.323773
 C        -0.732897         2.052999         1.029322
 H         0.188706        -1.123832         0.794519
 H        -2.616880         0.024427        -0.660195
 H        -2.552913         0.050515         1.126393
 H        -2.647505         2.300507        -1.858733
 H        -1.395163         3.424118        -1.072746
 H        -0.801165         0.549595        -2.002577
 H         0.199614         1.848916        -1.553411
 H        -1.439745         3.406349         2.688895
 H        -1.843262         1.738008         3.123843
 H        -0.014809         2.732199         0.696714
