19
Iteration:  2997
 O         0.359446        -0.208705         0.346336
 C        -0.708897         0.705079         0.180411
 C        -2.163976         0.612667         0.307793
 C        -2.101577         2.122361         0.321849
 C        -1.784511         2.387107        -1.146334
 C        -0.658260         1.314685        -1.335428
 O        -2.841303         2.827067         1.441093
 C        -1.732917         2.353698         2.232242
 C        -0.737791         2.013684         1.121767
 H         0.890216        -0.159456        -0.460212
 H        -2.840260         0.308855        -0.460243
 H        -2.525787         0.185398         1.363233
 H        -2.680363         2.380654        -1.865037
 H        -1.528523         3.436327        -1.166469
 H        -0.840882         0.497142        -2.084955
 H         0.288179         1.747497        -1.652249
 H        -1.240366         3.166389         2.855806
 H        -1.918858         1.530464         2.949235
 H         0.178445         2.548322         0.880595
