19
Iteration:   326charge 0 multiplicity 1
 O         0.386839        -0.242169         0.299628
 C        -0.624202         0.727294         0.172660
 C        -2.132375         0.454760         0.608750
 C        -2.202801         2.008214         0.378980
 C        -2.054147         2.233768        -1.102740
 C        -0.666950         1.403646        -1.193883
 O        -2.770843         3.010340         1.202122
 C        -1.621224         2.471100         2.207717
 C        -0.649386         2.078721         0.924770
 H         0.210163        -1.108023        -0.076696
 H        -2.618733        -0.202121        -0.025226
 H        -2.259479         0.360189         1.704326
 H        -2.777953         2.033588        -1.846569
 H        -1.803569         3.334481        -1.234655
 H        -0.677178         0.706888        -2.083819
 H         0.318331         1.863498        -1.323998
 H        -1.246576         3.319140         2.742045
 H        -2.174007         1.680406         2.791822
 H         0.010132         2.845837         0.506042
