19
Iteration:  3996charge 0 multiplicity 1
 O         0.364176        -0.268638         0.224413
 C        -0.690137         0.683473         0.150182
 C        -2.284913         0.493022         0.229155
 C        -2.060056         2.159922         0.309862
 C        -1.744646         2.521764        -1.130426
 C        -0.561003         1.521525        -1.223692
 O        -2.839331         2.762994         1.342908
 C        -1.789605         2.313108         2.315694
 C        -0.769678         1.944292         1.170792
 H         0.765360        -0.090064         1.094495
 H        -2.739792         0.137111        -0.708983
 H        -2.747936         0.167541         1.211298
 H        -2.570353         2.158842        -1.840670
 H        -1.447122         3.535750        -1.459785
 H        -0.675883         0.796148        -1.997126
 H         0.369712         1.951495        -1.392169
 H        -1.288603         3.210759         2.837211
 H        -1.924657         1.604784         3.085140
 H         0.078996         2.614451         1.364615
