19
Iteration:  1248
 O         0.343308        -0.260390         0.371994
 C        -0.606060         0.787112         0.144522
 C        -2.217186         0.588957         0.380641
 C        -2.128600         2.196137         0.307666
 C        -1.828228         2.407040        -1.170802
 C        -0.624073         1.339949        -1.278716
 O        -2.843559         2.808708         1.340183
 C        -1.640184         2.271236         2.231614
 C        -0.823213         2.030315         1.027717
 H         0.890703        -0.101700         1.142880
 H        -2.722644         0.041394        -0.479215
 H        -2.630972         0.250966         1.352931
 H        -2.682844         2.082015        -1.739074
 H        -1.501519         3.440879        -1.444374
 H        -0.614039         0.549237        -2.024570
 H         0.472491         1.689432        -1.332033
 H        -1.190446         3.106953         2.864415
 H        -2.136606         1.470364         2.785849
 H        -0.053264         2.895663         0.899970
