19
Iteration:   451charge 0 multiplicity 1
 O         0.412391        -0.237362         0.247743
 C        -0.683464         0.739371         0.263798
 C        -2.166999         0.515290         0.596111
 C        -2.070933         2.157928         0.250613
 C        -1.978476         2.261358        -1.256170
 C        -0.772899         1.306287        -1.219748
 O        -2.787526         2.853845         1.248184
 C        -1.583848         2.490788         2.224794
 C        -0.705885         2.110732         1.063995
 H         0.135842        -1.123456         0.556621
 H        -2.662331        -0.323803         0.025079
 H        -2.279880         0.413024         1.674837
 H        -2.908883         1.875245        -1.837130
 H        -1.627688         3.218842        -1.570011
 H        -0.731944         0.438128        -1.882953
 H         0.027055         2.054172        -1.458531
 H        -1.240985         3.505680         2.648937
 H        -1.884116         2.000031         3.128888
 H         0.149328         2.750001         0.828194
