19
Iteration:  3495charge 0 multiplicity 1
 O         0.314718        -0.284125         0.470554
 C        -0.664403         0.747563         0.127224
 C        -2.196315         0.516504         0.239809
 C        -2.206785         2.070362         0.249843
 C        -1.715836         2.570580        -1.118563
 C        -0.572966         1.479846        -1.372261
 O        -2.769929         2.854438         1.479283
 C        -1.763461         2.202958         2.294544
 C        -0.856601         1.955957         1.002045
 H         1.187213         0.042337         0.132971
 H        -2.748709         0.040567        -0.504792
 H        -2.475605         0.069378         1.135487
 H        -2.518518         2.759203        -1.889010
 H        -1.096426         3.462217        -1.028389
 H        -0.613429         0.657428        -2.107503
 H         0.377695         1.920497        -1.458988
 H        -1.276250         2.857498         3.008940
 H        -2.228357         1.331164         2.684103
 H        -0.194959         2.853027         0.903029
