19
Iteration:  3230charge 0 multiplicity 1
 O         0.354831        -0.149708         0.440272
 C        -0.604440         0.732590         0.138289
 C        -2.214929         0.495286         0.175139
 C        -2.141806         2.082440         0.340991
 C        -1.798711         2.562544        -1.081363
 C        -0.650092         1.457438        -1.311933
 O        -2.709852         2.805634         1.368778
 C        -1.706402         2.317674         2.275874
 C        -0.840284         1.883576         1.064857
 H        -0.071335        -1.029888         0.534572
 H        -2.608029         0.258484        -0.851230
 H        -2.679411        -0.067279         1.000504
 H        -2.544320         2.346499        -1.828121
 H        -1.457317         3.662399        -1.025684
 H        -0.965140         0.687334        -2.019054
 H         0.358922         1.766956        -1.622887
 H        -1.297781         2.992602         2.995126
 H        -2.103622         1.497972         2.882381
 H        -0.044422         2.664919         0.909489
