19
Iteration:   410charge 0 multiplicity 1
 O         0.285788        -0.214257         0.619252
 C        -0.641273         0.770070         0.172097
 C        -2.064055         0.406873         0.384427
 C        -2.246897         2.030542         0.317236
 C        -1.978743         2.309972        -1.233598
 C        -0.737504         1.338036        -1.337722
 O        -2.752115         2.855399         1.391043
 C        -1.382230         2.534010         2.199743
 C        -0.828593         2.149505         0.887827
 H         0.214602        -0.926269        -0.062687
 H        -2.762891        -0.083321        -0.427593
 H        -2.237025         0.027501         1.418895
 H        -2.862301         2.114117        -1.946593
 H        -1.592312         3.298612        -1.306441
 H        -0.935693         0.509206        -2.047380
 H         0.207713         1.834709        -1.437389
 H        -0.994280         3.452094         2.684329
 H        -1.499033         1.713137         2.913614
 H        -0.106355         2.986003         0.516262
