19
Iteration:  4824
 O         0.300122        -0.446014         0.235042
 C        -0.642276         0.763004         0.180981
 C        -2.161236         0.550622         0.198938
 C        -2.178653         2.085837         0.297026
 C        -1.815435         2.531988        -1.083169
 C        -0.522357         1.644673        -1.143880
 O        -2.850177         2.774800         1.249353
 C        -1.791063         2.343856         2.261524
 C        -0.696175         1.964143         1.206929
 H         0.641374        -0.639990         1.128118
 H        -2.602354         0.002987        -0.658673
 H        -2.292165        -0.087387         1.061416
 H        -2.619931         2.304146        -1.800811
 H        -1.416320         3.535412        -1.090231
 H        -0.352702         0.966842        -2.075208
 H         0.331594         2.276577        -1.173650
 H        -1.703449         3.229470         2.831124
 H        -2.249929         1.578503         2.897266
 H         0.166205         2.604951         1.237741
