19
Iteration:  3352charge 0 multiplicity 1
 O         0.186306        -0.284251         0.362936
 C        -0.595740         0.832281         0.150612
 C        -2.153621         0.531196         0.242152
 C        -2.113867         2.169316         0.238951
 C        -1.683837         2.542864        -1.174846
 C        -0.613946         1.415809        -1.233547
 O        -2.801333         2.729096         1.464236
 C        -1.757033         2.173398         2.264714
 C        -0.808837         2.101039         1.096279
 H         1.095031        -0.212698         0.012044
 H        -2.545702        -0.012546        -0.597867
 H        -2.666327         0.375099         1.276235
 H        -2.529697         2.291605        -1.812642
 H        -1.163163         3.572370        -1.303983
 H        -1.003912         0.669062        -1.901539
 H         0.393008         1.726711        -1.616080
 H        -1.456267         2.794904         3.089244
 H        -2.125280         1.219361         2.705296
 H        -0.021085         2.914105         1.045720
