19
Iteration:  4445charge 0 multiplicity 1
 O         0.262860        -0.286295         0.359312
 C        -0.650100         0.790048         0.146609
 C        -2.187106         0.546448         0.228620
 C        -2.085640         2.086897         0.259128
 C        -1.705519         2.527391        -1.117841
 C        -0.578282         1.482289        -1.309796
 O        -2.899332         2.683214         1.428078
 C        -1.688139         2.330636         2.314863
 C        -0.738453         2.082144         1.052000
 H        -0.220556        -1.000132         0.815252
 H        -2.616617         0.180618        -0.731901
 H        -2.665483         0.089213         1.094754
 H        -2.523052         2.353390        -1.887014
 H        -1.372415         3.536332        -1.147337
 H        -0.723409         0.514795        -1.915080
 H         0.471881         1.759709        -1.524344
 H        -1.271961         3.224323         2.921701
 H        -1.969990         1.638557         3.067939
 H         0.092756         2.849228         0.961821
