19
Iteration:  1693charge 0 multiplicity 1
 O         0.291953        -0.312155         0.497535
 C        -0.679232         0.663612         0.191675
 C        -2.121803         0.439794         0.351693
 C        -2.135922         2.111514         0.316013
 C        -1.797922         2.502700        -1.172068
 C        -0.593967         1.422715        -1.247625
 O        -2.850130         2.788606         1.387221
 C        -1.634366         2.457921         2.253359
 C        -0.797144         2.109136         0.905525
 H         0.407731        -0.849631        -0.337703
 H        -2.651987        -0.084647        -0.485252
 H        -2.510633         0.002745         1.335133
 H        -2.618238         2.215817        -1.890805
 H        -1.486096         3.644873        -1.284316
 H        -0.917563         0.662952        -2.026520
 H         0.372936         1.883777        -1.637887
 H        -1.400726         3.502900         2.654981
 H        -1.553598         1.554825         2.944530
 H        -0.168721         2.999885         0.540356
