19
Iteration:  2386charge 0 multiplicity 1
 O         0.254803        -0.390573         0.169845
 C        -0.604365         0.786860         0.272563
 C        -2.087762         0.514041         0.388004
 C        -2.099196         2.113081         0.275486
 C        -1.868095         2.380476        -1.168366
 C        -0.706354         1.343835        -1.208636
 O        -2.835999         2.834163         1.377973
 C        -1.652696         2.466324         2.313859
 C        -0.751206         2.124879         1.050005
 H         1.097875        -0.159760         0.624225
 H        -2.544438        -0.069443        -0.414325
 H        -2.559356         0.252742         1.305230
 H        -2.743027         2.173496        -1.771278
 H        -1.440524         3.390822        -1.315765
 H        -0.957541         0.500824        -1.825006
 H         0.218121         1.704249        -1.733056
 H        -1.254803         3.465101         2.736635
 H        -1.961567         1.663011         2.966484
 H         0.094772         2.870677         0.722789
