19
Iteration:  1535charge 0 multiplicity 1
 O         0.247340        -0.313614         0.576779
 C        -0.611025         0.785054         0.196623
 C        -2.158454         0.513886         0.352991
 C        -2.143330         2.035235         0.230498
 C        -1.787420         2.516363        -1.204491
 C        -0.602602         1.419431        -1.313857
 O        -2.809130         2.721932         1.408701
 C        -1.622106         2.425475         2.237293
 C        -0.831420         2.105323         0.930732
 H         0.606215        -0.653060        -0.280876
 H        -2.603656        -0.130306        -0.381180
 H        -2.399953         0.270848         1.399517
 H        -2.715459         2.311524        -1.828585
 H        -1.490052         3.568195        -1.295210
 H        -1.044572         0.641859        -1.928110
 H         0.255117         1.847403        -1.836762
 H        -1.337619         3.216959         2.872382
 H        -1.614234         1.490588         2.892880
 H        -0.172989         2.938327         0.610842
