19
Iteration:  4182charge 0 multiplicity 1
 O         0.301363        -0.257660         0.371018
 C        -0.624499         0.739949         0.165337
 C        -2.243232         0.538225         0.130904
 C        -2.184154         2.162459         0.257667
 C        -1.722176         2.545946        -1.064988
 C        -0.540071         1.415679        -1.232915
 O        -2.831152         2.702516         1.482420
 C        -1.690898         2.274056         2.235296
 C        -0.796466         2.042711         0.982570
 H         0.401476        -0.547742         1.297977
 H        -2.837574         0.387910        -0.768939
 H        -2.778365         0.237179         1.074718
 H        -2.476817         2.489483        -1.957902
 H        -1.416316         3.554141        -1.032076
 H        -0.635233         0.641871        -1.999774
 H         0.442190         1.772749        -1.362088
 H        -1.287808         3.125096         2.936645
 H        -1.849591         1.388657         2.822295
 H        -0.049260         2.847080         0.784724
