19
Iteration:  3570
 O         0.043977        -0.380954         0.244408
 C        -0.599885         0.810347         0.201330
 C        -2.092654         0.540173         0.346396
 C        -2.087332         2.066700         0.341934
 C        -1.756830         2.459406        -1.161719
 C        -0.386340         1.567267        -1.304159
 O        -2.880300         2.710942         1.339684
 C        -1.740801         2.281226         2.273190
 C        -0.795211         2.089004         1.166682
 H         1.017784        -0.303848         0.144713
 H        -2.590529         0.018859        -0.371168
 H        -2.179176         0.149800         1.317107
 H        -2.660387         2.276042        -1.772948
 H        -1.660868         3.556105        -0.994156
 H        -0.434839         0.900375        -2.088395
 H         0.404259         2.371414        -1.483937
 H        -1.414364         3.143669         2.762128
 H        -1.977768         1.481384         2.933107
 H        -0.206279         2.992771         0.979873
