19
Iteration:  2632charge 0 multiplicity 1
 O         0.397988        -0.203185         0.369148
 C        -0.689532         0.713721         0.151929
 C        -2.218884         0.515934         0.404294
 C        -2.144091         2.068894         0.287568
 C        -1.876145         2.424208        -1.123750
 C        -0.761827         1.332605        -1.242549
 O        -2.713499         2.812619         1.346220
 C        -1.587948         2.491568         2.234567
 C        -0.735514         2.001325         0.994434
 H         0.321069        -1.045990        -0.127171
 H        -2.990633        -0.021508        -0.254088
 H        -2.499306         0.148737         1.454537
 H        -2.805032         2.173921        -1.743844
 H        -1.733318         3.526224        -1.250214
 H        -0.819865         0.697503        -2.133636
 H         0.093194         1.993579        -1.370834
 H        -1.391325         3.497992         2.653368
 H        -1.647276         1.723764         3.068178
 H         0.115393         2.624693         0.918953
