19
Iteration:  2550charge 0 multiplicity 1
 O         0.273530        -0.265907         0.479778
 C        -0.647398         0.692919         0.089737
 C        -2.198896         0.532534         0.420720
 C        -2.092260         2.160341         0.308134
 C        -1.963550         2.362625        -1.267270
 C        -0.648580         1.446396        -1.265714
 O        -2.768550         2.713473         1.419687
 C        -1.554422         2.487573         2.262872
 C        -0.706914         2.041987         0.994788
 H         0.287139        -0.929931        -0.225736
 H        -2.868861         0.087029        -0.245347
 H        -2.261443         0.219131         1.398678
 H        -2.759805         1.928235        -1.828107
 H        -1.836689         3.413936        -1.480754
 H        -0.752777         0.756059        -2.111264
 H         0.106858         2.189416        -1.579344
 H        -0.952972         3.359976         2.576135
 H        -1.880197         1.854537         3.030356
 H         0.004948         2.911254         0.703440
