19
Iteration:  4981
 O         0.186970        -0.493753         0.349687
 C        -0.553174         0.775710         0.082094
 C        -2.078277         0.535828         0.303983
 C        -2.106406         2.115318         0.286886
 C        -1.778252         2.629307        -1.121418
 C        -0.469746         1.628612        -1.271401
 O        -2.871765         2.697497         1.285486
 C        -1.877425         2.303734         2.305154
 C        -0.802377         1.977967         1.161629
 H         1.101071        -0.154192         0.554788
 H        -2.596156         0.064706        -0.510706
 H        -2.238799        -0.004083         1.211128
 H        -2.563890         2.375185        -1.847383
 H        -1.645959         3.705224        -1.313519
 H        -0.388237         0.998538        -2.184135
 H         0.389402         2.292024        -1.008875
 H        -1.589807         3.262750         2.858447
 H        -2.214199         1.529371         2.986593
 H         0.101078         2.705488         1.260061
