19
Iteration:  4287charge 0 multiplicity 1
 O         0.288896        -0.321452         0.285231
 C        -0.621369         0.707589         0.123143
 C        -2.252387         0.537034         0.294040
 C        -2.066082         2.138203         0.243196
 C        -1.808280         2.487313        -1.071784
 C        -0.561549         1.539206        -1.197217
 O        -2.806063         2.820189         1.262120
 C        -1.713777         2.295026         2.261038
 C        -0.768122         1.957117         1.145640
 H         0.614127        -0.414877         1.204277
 H        -2.761151         0.130879        -0.555961
 H        -2.563432        -0.111808         1.153750
 H        -2.684035         2.376557        -1.646242
 H        -1.503086         3.582514        -0.910162
 H        -0.843389         0.847581        -2.005834
 H         0.442074         2.107460        -1.284503
 H        -1.335571         3.072077         2.830302
 H        -2.200496         1.445665         2.886475
 H         0.028986         2.690684         1.119077
