19
Iteration:  4291charge 0 multiplicity 1
 O         0.297933        -0.357997         0.304730
 C        -0.618512         0.692230         0.177931
 C        -2.224680         0.534340         0.246315
 C        -2.087575         2.150607         0.273538
 C        -1.790952         2.546845        -1.035722
 C        -0.570963         1.521246        -1.232378
 O        -2.803002         2.808173         1.274817
 C        -1.730197         2.288834         2.254831
 C        -0.783543         1.974698         1.101136
 H         0.563747        -0.283069         1.235199
 H        -2.780483         0.090196        -0.608283
 H        -2.473899        -0.061177         1.153460
 H        -2.735473         2.438461        -1.640684
 H        -1.616916         3.548938        -0.920928
 H        -0.796375         0.749893        -2.037892
 H         0.343511         2.074885        -1.240782
 H        -1.216285         3.177365         2.803234
 H        -2.103755         1.416227         2.726318
 H        -0.005037         2.782088         0.958301
