19
Iteration:  4208charge 0 multiplicity 1
 O         0.253867        -0.285410         0.452441
 C        -0.646428         0.772790         0.105025
 C        -2.148914         0.438889         0.227038
 C        -2.113049         2.162615         0.245949
 C        -1.719886         2.631845        -1.121228
 C        -0.670362         1.550915        -1.314162
 O        -2.824067         2.665409         1.325197
 C        -1.667348         2.288447         2.337704
 C        -0.741486         1.954858         1.055146
 H        -0.116824        -0.832678         1.167735
 H        -2.849161        -0.023830        -0.530049
 H        -2.427346         0.147289         1.217979
 H        -2.537190         2.530703        -1.854232
 H        -1.510623         3.770749        -1.149355
 H        -0.676631         0.863655        -2.131996
 H         0.379971         1.890767        -1.392877
 H        -1.323029         3.217029         2.794803
 H        -1.940365         1.673403         3.228146
 H         0.034980         2.719625         0.914574
