19
Iteration:  3374charge 0 multiplicity 1
 O         0.325299        -0.345481         0.364372
 C        -0.640391         0.744957         0.137814
 C        -2.136397         0.659242         0.266907
 C        -2.053514         2.208293         0.398084
 C        -1.710890         2.538958        -1.207231
 C        -0.642771         1.353678        -1.370211
 O        -2.900621         2.774945         1.388814
 C        -1.836834         2.169927         2.330239
 C        -0.749713         2.059246         1.101391
 H         1.096488        -0.095400        -0.172749
 H        -2.685990         0.416416        -0.601114
 H        -2.456336         0.230174         1.310059
 H        -2.606681         2.479905        -1.809234
 H        -1.248089         3.570339        -0.976291
 H        -0.891714         0.534880        -2.040788
 H         0.318361         1.808188        -1.712599
 H        -1.517810         2.896035         3.053385
 H        -2.213352         1.281144         2.879429
 H         0.071362         2.837010         1.274707
