19
Iteration:   777charge 0 multiplicity 1
 O         0.226632        -0.290544         0.502840
 C        -0.683928         0.738142         0.193418
 C        -2.043593         0.389283         0.355309
 C        -2.167559         2.098235         0.343878
 C        -1.941512         2.353945        -1.251158
 C        -0.617494         1.350187        -1.182316
 O        -2.807657         2.853532         1.403025
 C        -1.556392         2.484808         2.192148
 C        -0.783640         2.166805         0.893214
 H         1.029422        -0.259651        -0.072573
 H        -2.501696        -0.068485        -0.479423
 H        -2.306027         0.047440         1.355523
 H        -2.778786         1.956100        -1.971971
 H        -1.626423         3.354770        -1.449801
 H        -0.763559         0.684875        -2.118685
 H         0.398934         1.872928        -1.307088
 H        -1.290145         3.346028         2.900277
 H        -1.715335         1.653915         2.845151
 H        -0.208331         3.073206         0.420435
