19
Iteration:    62charge 0 multiplicity 1
 O         0.347543        -0.342374         0.323359
 C        -0.536017         0.724530         0.160993
 C        -2.049638         0.401950         0.267091
 C        -2.107570         1.986280         0.330419
 C        -1.912052         2.395021        -1.148683
 C        -0.673331         1.377828        -1.293258
 O        -2.904396         2.804919         1.423237
 C        -1.659963         2.703449         2.230836
 C        -0.764600         2.101155         1.078459
 H         0.266624        -0.586275         1.248278
 H        -2.582840        -0.158434        -0.536667
 H        -2.463309         0.075108         1.215014
 H        -2.803602         2.110819        -1.804352
 H        -1.601926         3.422953        -1.314170
 H        -0.903891         0.506190        -2.034181
 H         0.104948         1.990459        -1.729417
 H        -1.295370         3.623744         2.801001
 H        -1.860758         2.063302         3.123825
 H        -0.089236         2.911075         0.711105
