19
Iteration:  3220
 O         0.381342        -0.210817         0.489215
 C        -0.723345         0.744510         0.110492
 C        -2.255392         0.453973         0.112197
 C        -2.086791         2.059217         0.268824
 C        -1.817415         2.576837        -1.007171
 C        -0.617026         1.454730        -1.208984
 O        -2.748367         2.809175         1.324691
 C        -1.614434         2.254984         2.326579
 C        -0.796938         2.022785         1.016523
 H        -0.047407        -1.028466         0.163890
 H        -2.823134         0.057500        -0.755539
 H        -2.666979        -0.046046         1.040513
 H        -2.562067         2.349802        -1.704132
 H        -1.642332         3.664665        -1.175130
 H        -0.894808         0.782946        -2.002489
 H         0.334084         1.968874        -1.463152
 H        -1.260407         3.124369         2.847184
 H        -2.053041         1.475956         2.994440
 H        -0.145889         2.921334         0.754557
