19
Iteration:  3249charge 0 multiplicity 1
 O         0.412753        -0.266311         0.287781
 C        -0.686152         0.732709         0.158463
 C        -2.194510         0.535156         0.280943
 C        -2.090341         2.172998         0.252688
 C        -1.729215         2.526534        -1.152451
 C        -0.657420         1.410672        -1.316599
 O        -2.868620         2.856269         1.433364
 C        -1.771839         2.190418         2.296031
 C        -0.740168         2.021514         1.112016
 H         0.085123        -0.829854         1.033418
 H        -2.756078        -0.043736        -0.530934
 H        -2.395935         0.264102         1.244988
 H        -2.592582         2.562586        -1.942170
 H        -1.173306         3.518446        -1.177566
 H        -0.799994         0.607932        -2.098208
 H         0.258648         1.920935        -1.520823
 H        -1.401520         2.973062         3.000405
 H        -2.123298         1.439469         2.958065
 H         0.050312         2.717667         1.054871
