19
Iteration:   773
 O         0.216118        -0.308772         0.453469
 C        -0.645163         0.728792         0.201557
 C        -2.063534         0.375479         0.373477
 C        -2.150951         2.078902         0.378982
 C        -1.893419         2.317806        -1.241328
 C        -0.613446         1.380609        -1.224654
 O        -2.812712         2.860053         1.417810
 C        -1.563384         2.522352         2.177755
 C        -0.792356         2.184860         0.918626
 H         1.078579        -0.139284         0.046112
 H        -2.566647        -0.220361        -0.477801
 H        -2.469275         0.119300         1.359201
 H        -2.630530         1.971957        -1.888259
 H        -1.710913         3.452332        -1.395021
 H        -0.786958         0.714284        -2.041424
 H         0.329555         1.767410        -1.430547
 H        -1.385261         3.425995         2.692941
 H        -1.897021         1.640031         2.870669
 H        -0.332660         3.027194         0.459234
