19
Iteration:  2402charge 0 multiplicity 1
 O         0.262227        -0.360063         0.241103
 C        -0.675838         0.722552         0.147761
 C        -2.179335         0.602814         0.451051
 C        -2.127384         2.093140         0.338786
 C        -1.884464         2.387430        -1.136322
 C        -0.654367         1.394240        -1.242718
 O        -2.797399         2.733607         1.395916
 C        -1.655376         2.535390         2.206816
 C        -0.637621         2.063622         0.978314
 H         0.949482        -0.297505         0.931208
 H        -2.758683         0.063388        -0.391769
 H        -2.389398         0.063688         1.426302
 H        -2.653396         2.070391        -1.889859
 H        -1.697603         3.448960        -1.399885
 H        -0.618868         0.697057        -2.138905
 H         0.241033         1.977715        -1.201102
 H        -1.469070         3.434728         2.766910
 H        -1.884889         1.796789         3.034979
 H         0.033130         2.817901         0.877799
