19
Iteration:   673charge 0 multiplicity 1
 O         0.360766        -0.159258         0.656005
 C        -0.700975         0.768131         0.183448
 C        -2.172029         0.507362         0.424894
 C        -2.086253         2.108303         0.251865
 C        -2.056944         2.362563        -1.326898
 C        -0.714371         1.367818        -1.315663
 O        -2.739472         2.762299         1.353560
 C        -1.520692         2.405735         2.219569
 C        -0.662646         2.103243         0.915496
 H         0.055480        -1.105855         0.626990
 H        -2.714445        -0.086340        -0.376190
 H        -2.555255         0.230788         1.445512
 H        -2.852093         1.945639        -1.909270
 H        -1.863821         3.423830        -1.708777
 H        -0.949188         0.626829        -2.049676
 H         0.135405         1.996498        -1.621491
 H        -1.179097         3.250113         2.854116
 H        -1.744029         1.460120         2.831670
 H         0.121077         2.786222         0.668173
