19
Iteration:    51charge 0 multiplicity 1
 O         0.346140        -0.389901         0.324552
 C        -0.597472         0.700676         0.096247
 C        -2.103236         0.485581         0.293785
 C        -2.186271         2.041147         0.379409
 C        -1.892183         2.356676        -1.071540
 C        -0.604343         1.391575        -1.279901
 O        -2.918232         2.692527         1.378439
 C        -1.608713         2.734889         2.307938
 C        -0.763242         2.147308         0.990223
 H         0.445970        -0.445820         1.289720
 H        -2.542609         0.137607        -0.670018
 H        -2.246138        -0.215463         1.105883
 H        -2.762298         2.132633        -1.785007
 H        -1.662289         3.413412        -1.194892
 H        -0.801978         0.615818        -2.128341
 H         0.373350         1.856497        -1.442690
 H        -1.334253         3.795646         2.110757
 H        -1.814796         2.270716         3.297264
 H        -0.019345         2.938729         0.713844
