19
Iteration:  3190charge 0 multiplicity 1
 O         0.187803        -0.317588         0.419942
 C        -0.672331         0.820558         0.159001
 C        -2.164970         0.598613         0.327718
 C        -2.110735         2.097797         0.220474
 C        -1.768398         2.516759        -1.228096
 C        -0.486788         1.501069        -1.249857
 O        -2.831325         2.678546         1.500909
 C        -1.711275         2.279587         2.252149
 C        -0.763710         2.019587         1.001900
 H         0.539921        -0.590078        -0.443278
 H        -2.815066         0.118716        -0.344004
 H        -2.403161         0.305491         1.477886
 H        -2.502366         1.999562        -1.944954
 H        -1.631907         3.572925        -1.345199
 H        -0.675755         0.850007        -2.101047
 H         0.447879         2.162963        -1.381994
 H        -1.188835         3.193508         2.686843
 H        -1.980914         1.451001         3.038276
 H         0.059117         2.794365         0.970749
