19
Iteration:  4076charge 0 multiplicity 1
 O         0.346302        -0.315242         0.354754
 C        -0.703309         0.739795         0.129531
 C        -2.297687         0.601688         0.260090
 C        -2.101702         2.141270         0.276622
 C        -1.686367         2.547990        -1.120611
 C        -0.519634         1.513941        -1.302152
 O        -2.903847         2.596315         1.437789
 C        -1.739952         2.391545         2.280040
 C        -0.721234         2.024536         1.028154
 H         0.198706        -0.998871         1.033421
 H        -2.846263         0.105629        -0.546997
 H        -2.628607         0.105427         1.138839
 H        -2.551625         2.357549        -1.827751
 H        -1.322263         3.534371        -1.280060
 H        -0.642749         0.808829        -2.158592
 H         0.458365         2.027793        -1.230429
 H        -1.323280         3.289739         2.870496
 H        -1.754025         1.497628         2.912546
 H        -0.011638         2.887515         0.923600
