19
Iteration:  1901
 O         0.210992        -0.271275         0.334105
 C        -0.613320         0.768252         0.208268
 C        -2.165767         0.586578         0.326005
 C        -2.172616         2.041350         0.298809
 C        -1.811241         2.365612        -1.205968
 C        -0.646561         1.322380        -1.244686
 O        -2.771149         2.809430         1.366921
 C        -1.579044         2.467603         2.296625
 C        -0.796316         2.085288         1.033858
 H         0.891025        -0.173342         1.007322
 H        -2.684641        -0.005974        -0.476933
 H        -2.555229         0.217430         1.253163
 H        -2.639277         2.190368        -1.888448
 H        -1.550686         3.476358        -1.416202
 H        -0.908252         0.454493        -1.884049
 H         0.392004         1.585200        -1.610035
 H        -1.205456         3.284119         2.984376
 H        -1.824269         1.427197         2.714553
 H        -0.118651         2.936272         0.682680
