19
Iteration:  3427charge 0 multiplicity 1
 O         0.207104        -0.433100         0.281465
 C        -0.621407         0.724027         0.111994
 C        -2.148053         0.496988         0.202150
 C        -2.169451         2.101943         0.385314
 C        -1.744146         2.502082        -1.099763
 C        -0.470680         1.568701        -1.148014
 O        -2.870849         2.784735         1.437781
 C        -1.706552         2.406545         2.250476
 C        -0.854595         1.993671         1.014214
 H         1.126518        -0.106686         0.292218
 H        -2.684591        -0.106380        -0.424392
 H        -2.348170        -0.092425         1.123416
 H        -2.555581         2.226285        -1.774576
 H        -1.543098         3.638976        -1.236039
 H        -0.255956         1.076572        -2.044193
 H         0.387248         2.297468        -1.079792
 H        -1.419929         3.269422         2.760875
 H        -1.908224         1.498600         2.791828
 H        -0.191253         2.781419         0.626652
