19
Iteration:   416
 O         0.318470        -0.239737         0.592666
 C        -0.642498         0.773155         0.151040
 C        -2.134740         0.416189         0.346539
 C        -2.197003         2.061954         0.339674
 C        -1.986336         2.249808        -1.162114
 C        -0.710593         1.345839        -1.322911
 O        -2.761550         2.872919         1.389715
 C        -1.434973         2.536055         2.212852
 C        -0.781872         2.150170         0.874523
 H         0.109159        -1.000046         0.003037
 H        -2.667377        -0.121925        -0.390043
 H        -2.248220         0.057931         1.355945
 H        -2.862533         2.034801        -1.769724
 H        -1.672523         3.309414        -1.415362
 H        -0.817428         0.514991        -2.019245
 H         0.181055         1.956863        -1.698289
 H        -0.990589         3.535858         2.449815
 H        -1.608350         1.804877         3.009930
 H        -0.255908         3.028924         0.631088
