19
Iteration:  2094
 O         0.352403        -0.292011         0.377022
 C        -0.573400         0.728221         0.220968
 C        -2.197352         0.504107         0.323236
 C        -2.120801         2.132383         0.363301
 C        -1.913989         2.419171        -1.241660
 C        -0.686832         1.315653        -1.313941
 O        -2.793176         2.889579         1.402145
 C        -1.618961         2.365248         2.278836
 C        -0.701242         2.130146         0.979521
 H        -0.037404        -0.739877         1.152158
 H        -2.617488        -0.122142        -0.583791
 H        -2.692203         0.303865         1.301830
 H        -2.705197         1.967829        -1.835177
 H        -1.581824         3.447137        -1.624427
 H        -0.915193         0.532909        -2.046498
 H         0.211274         1.914893        -1.622563
 H        -1.519455         3.119314         3.068435
 H        -1.817020         1.445319         2.781089
 H        -0.093732         3.081835         0.758210
