19
Iteration:  4061charge 0 multiplicity 1
 O         0.315991        -0.332408         0.398432
 C        -0.616948         0.745979         0.115478
 C        -2.152252         0.590338         0.179425
 C        -2.127917         2.107457         0.331283
 C        -1.833812         2.594526        -1.114754
 C        -0.537627         1.471297        -1.295851
 O        -2.844376         2.694946         1.396050
 C        -1.711429         2.268149         2.254856
 C        -0.749585         2.013250         1.086112
 H        -0.039411        -0.422527         1.304454
 H        -2.682517         0.235883        -0.708523
 H        -2.522776         0.228191         1.197162
 H        -2.630153         2.480040        -1.941031
 H        -1.496468         3.648110        -1.021353
 H        -0.806848         0.783019        -2.076036
 H         0.377676         1.919458        -1.546743
 H        -1.507556         3.232853         2.818698
 H        -2.108925         1.532086         2.881517
 H         0.050311         2.708348         0.838036
