19
Iteration:  3462
 O         0.132188        -0.339133         0.324087
 C        -0.639012         0.829229         0.243987
 C        -2.094584         0.616208         0.224029
 C        -2.041742         2.155686         0.318577
 C        -1.799556         2.511199        -1.182227
 C        -0.621228         1.486981        -1.256542
 O        -2.838169         2.614088         1.355859
 C        -1.753024         2.266839         2.238232
 C        -0.673305         2.051534         1.124175
 H         1.057927        -0.140416         0.543426
 H        -2.496343         0.234399        -0.626940
 H        -2.482240         0.294459         1.142190
 H        -2.814722         2.468462        -1.593859
 H        -1.365079         3.499750        -1.364890
 H        -0.555024         0.599938        -1.862393
 H         0.289558         2.059691        -1.300618
 H        -1.547508         2.997047         2.983635
 H        -2.060775         1.416259         2.810743
 H         0.150151         2.796577         1.001699
