19
Iteration:  1184charge 0 multiplicity 1
 O         0.369807        -0.320546         0.380266
 C        -0.630291         0.693981         0.143502
 C        -2.179666         0.462982         0.329911
 C        -2.138147         2.068599         0.382829
 C        -1.835298         2.421628        -1.148242
 C        -0.591333         1.467949        -1.257873
 O        -2.836090         2.746919         1.363718
 C        -1.685109         2.583974         2.165740
 C        -0.775942         2.070090         1.042412
 H        -0.245807        -1.036354         0.645101
 H        -2.650209         0.074960        -0.551841
 H        -2.343912        -0.074644         1.251584
 H        -2.658085         2.186702        -1.796750
 H        -1.594184         3.504123        -1.311084
 H        -0.705788         0.822853        -2.068996
 H         0.387205         2.053916        -1.338268
 H        -1.269977         3.437595         2.742771
 H        -2.001522         1.738304         2.881713
 H        -0.004468         2.884415         0.881318
