19
Iteration:  1066charge 0 multiplicity 1
 O         0.358129        -0.210417         0.325154
 C        -0.623436         0.790354         0.230750
 C        -2.190787         0.549332         0.314364
 C        -2.174635         2.101967         0.288593
 C        -1.753929         2.375245        -1.195297
 C        -0.599438         1.332160        -1.288051
 O        -2.883788         2.761451         1.460278
 C        -1.711053         2.394610         2.194625
 C        -0.762673         2.081885         1.015553
 H         0.433122        -0.537327         1.236071
 H        -2.717867         0.068513        -0.527915
 H        -2.618266         0.190574         1.276606
 H        -2.469509         2.251098        -1.999569
 H        -1.310405         3.442961        -1.260364
 H        -0.875861         0.490621        -1.964534
 H         0.412477         1.773787        -1.594471
 H        -1.313882         3.193807         2.733114
 H        -1.987191         1.650617         2.990238
 H         0.066785         2.800168         0.953172
