19
Iteration:   423
 O         0.342609        -0.240770         0.530785
 C        -0.615477         0.763014         0.137202
 C        -2.201216         0.490796         0.360874
 C        -2.121402         2.077888         0.339913
 C        -2.002441         2.231241        -1.099542
 C        -0.671906         1.340954        -1.306844
 O        -2.757402         2.870383         1.405048
 C        -1.539204         2.564872         2.181420
 C        -0.722498         2.102806         0.884978
 H         0.084386        -1.095959         0.163887
 H        -2.620923        -0.180690        -0.419551
 H        -2.396659        -0.007504         1.332628
 H        -2.835817         1.817655        -1.645152
 H        -1.896905         3.261533        -1.498405
 H        -0.785268         0.506131        -2.042148
 H         0.053044         1.969883        -1.777538
 H        -1.133962         3.476817         2.522368
 H        -1.769427         1.993922         3.116034
 H        -0.145480         2.978967         0.448025
