19
Iteration:  3844charge 0 multiplicity 1
 O         0.240115        -0.482582         0.260207
 C        -0.562270         0.759256         0.190413
 C        -2.131234         0.643018         0.206663
 C        -2.102435         2.152222         0.309283
 C        -1.786542         2.560242        -1.097760
 C        -0.563687         1.455215        -1.154381
 O        -2.889335         2.668911         1.340822
 C        -1.692472         2.351471         2.304669
 C        -0.799383         2.074355         1.081815
 H         1.102168        -0.250453         0.656625
 H        -2.597477         0.186452        -0.653676
 H        -2.670347         0.181330         1.045811
 H        -2.734660         2.407326        -1.646056
 H        -1.451244         3.521393        -1.184310
 H        -0.855119         0.638372        -1.883634
 H         0.319675         2.006128        -1.532058
 H        -1.478083         3.410606         2.671304
 H        -1.971036         1.581371         3.006648
 H        -0.203350         3.019766         0.950290
