19
Iteration:  1523charge 0 multiplicity 1
 O         0.275945        -0.271924         0.576120
 C        -0.600929         0.740255         0.175994
 C        -2.104323         0.563972         0.327544
 C        -2.122395         2.178227         0.268442
 C        -1.861167         2.411514        -1.162291
 C        -0.703306         1.379098        -1.310270
 O        -2.890470         2.758176         1.413641
 C        -1.614165         2.318683         2.136109
 C        -0.716745         2.118687         0.976637
 H         0.689589        -0.775194        -0.141197
 H        -2.711703         0.056939        -0.393800
 H        -2.538915         0.238941         1.308022
 H        -2.589147         2.340074        -1.995783
 H        -1.347769         3.429323        -1.256702
 H        -0.806320         0.630524        -2.068089
 H         0.299775         1.893945        -1.457228
 H        -1.171436         3.134851         2.753851
 H        -1.966785         1.466488         2.740059
 H         0.065455         2.925736         0.877799
