19
Iteration:  4194
 O         0.338178        -0.295776         0.438797
 C        -0.695393         0.705062         0.141090
 C        -2.233107         0.599900         0.193237
 C        -2.135300         2.078545         0.303812
 C        -1.724862         2.612570        -1.158233
 C        -0.545646         1.514765        -1.309795
 O        -2.868685         2.690624         1.462147
 C        -1.646494         2.302110         2.236429
 C        -0.810411         1.972626         1.026911
 H         0.017262        -0.580595         1.315830
 H        -2.540126        -0.006070        -0.673855
 H        -2.595160         0.036821         1.076803
 H        -2.545126         2.568714        -1.999862
 H        -1.195361         3.540017        -1.122997
 H        -0.909854         0.882354        -2.106459
 H         0.325370         2.007375        -1.522196
 H        -1.242545         3.243951         2.818926
 H        -1.920490         1.496957         2.869077
 H         0.007606         2.707625         0.867886
