19
Iteration:  3722charge 0 multiplicity 1
 O         0.283620        -0.413520         0.290403
 C        -0.694842         0.698349         0.231248
 C        -2.144405         0.501694         0.271417
 C        -2.127134         2.145115         0.263703
 C        -1.797126         2.595420        -1.101857
 C        -0.521466         1.547375        -1.133765
 O        -2.825420         2.734187         1.340860
 C        -1.734609         2.339403         2.303105
 C        -0.848705         2.017961         1.022009
 H         0.945436        -0.144446        -0.382803
 H        -2.476618        -0.266723        -0.500772
 H        -2.581739         0.314197         1.258271
 H        -2.429277         2.481100        -1.951724
 H        -1.483932         3.643151        -1.162831
 H        -0.559053         0.927601        -1.999860
 H         0.577466         1.919107        -1.104347
 H        -1.424577         3.242202         2.864179
 H        -1.950955         1.499533         3.046867
 H        -0.117506         2.747074         0.703425
