19
Iteration:   260charge 0 multiplicity 1
 O         0.367171        -0.126197         0.521974
 C        -0.660132         0.781283         0.171101
 C        -2.185743         0.563766         0.384750
 C        -2.165738         2.062767         0.297823
 C        -1.860486         2.329127        -1.149262
 C        -0.788991         1.250347        -1.320883
 O        -2.816402         2.703227         1.430109
 C        -1.446330         2.442051         2.211877
 C        -0.736958         2.178291         0.802523
 H        -0.094205        -0.830526         1.032906
 H        -2.683271         0.029570        -0.398896
 H        -2.486146         0.232167         1.412022
 H        -2.636482         2.151177        -1.898456
 H        -1.481611         3.373824        -1.335796
 H        -1.127701         0.428201        -2.053944
 H         0.141958         1.608196        -1.730942
 H        -1.208361         3.421261         2.663190
 H        -1.483680         1.625154         3.006977
 H        -0.195518         3.086692         0.437594
