19
Iteration:  4348
 O         0.230493        -0.302106         0.384332
 C        -0.653722         0.746491         0.155968
 C        -2.279305         0.655903         0.234568
 C        -2.060121         2.209066         0.259289
 C        -1.741682         2.490515        -1.162614
 C        -0.574481         1.439683        -1.221193
 O        -2.843468         2.646825         1.444252
 C        -1.710080         2.232917         2.252675
 C        -0.700487         2.039333         0.993808
 H         0.605337         0.195810         1.140707
 H        -2.806307         0.275578        -0.693469
 H        -2.683362         0.209917         1.126304
 H        -2.523323         2.300682        -1.934336
 H        -1.541439         3.543550        -1.221911
 H        -0.636352         0.861298        -2.128313
 H         0.386000         1.914234        -1.414177
 H        -1.286265         2.979355         3.047416
 H        -1.811752         1.316217         2.814174
 H         0.158062         2.758662         0.993374
