19
Iteration:  2464charge 0 multiplicity 1
 O         0.379353        -0.190264         0.364504
 C        -0.634415         0.789325         0.218485
 C        -2.175131         0.633590         0.378409
 C        -2.139473         2.193787         0.322832
 C        -1.862132         2.375460        -1.159872
 C        -0.766610         1.258438        -1.322531
 O        -2.791221         2.832337         1.350889
 C        -1.544617         2.244787         2.275715
 C        -0.722905         2.106121         0.997025
 H        -0.039168        -0.998863         0.739722
 H        -2.577802         0.058370        -0.455485
 H        -2.509585         0.226789         1.294983
 H        -2.718722         2.003847        -1.710548
 H        -1.669775         3.445772        -1.395244
 H        -1.189736         0.479193        -1.982169
 H         0.183241         1.604296        -1.709806
 H        -1.330402         3.116217         2.923898
 H        -1.974692         1.416981         2.891566
 H        -0.010690         2.813652         0.575394
