19
Iteration:  3443
 O         0.147607        -0.409058         0.294617
 C        -0.638133         0.753722         0.123747
 C        -2.138147         0.579661         0.270965
 C        -2.090938         2.106689         0.248619
 C        -1.804169         2.496587        -1.172856
 C        -0.465953         1.611670        -1.245524
 O        -2.874592         2.658623         1.412126
 C        -1.725291         2.357350         2.347054
 C        -0.749950         2.038253         1.132190
 H         1.076200        -0.192039         0.516578
 H        -2.718528         0.082349        -0.635698
 H        -2.476720         0.137117         1.218669
 H        -2.421342         2.011466        -1.963166
 H        -1.648656         3.507350        -1.391125
 H        -0.623697         0.878026        -2.162317
 H         0.503329         2.092312        -1.389343
 H        -1.310317         3.320011         2.832334
 H        -1.992475         1.638696         3.173451
 H         0.003945         2.841017         1.180175
