19
Iteration:  4571charge 0 multiplicity 1
 O         0.273706        -0.287116         0.349019
 C        -0.643295         0.795614         0.151631
 C        -2.134220         0.491297         0.261959
 C        -2.077360         2.097749         0.295234
 C        -1.743779         2.493133        -1.118883
 C        -0.536332         1.544838        -1.264054
 O        -2.919094         2.742772         1.412617
 C        -1.707812         2.330555         2.249145
 C        -0.755024         1.981699         1.064240
 H        -0.225804        -1.096217         0.441762
 H        -2.750540        -0.070090        -0.513994
 H        -2.592870         0.237215         1.219032
 H        -2.600210         2.433387        -1.856929
 H        -1.289374         3.567195        -1.062905
 H        -0.610560         0.977360        -2.199947
 H         0.454209         2.048646        -1.158495
 H        -1.364175         3.228603         2.748992
 H        -1.975311         1.419219         2.913866
 H        -0.124710         2.790672         0.750478
