19
Iteration:   147
 O         0.258354        -0.275296         0.587393
 C        -0.629553         0.763261         0.165227
 C        -2.100501         0.443346         0.394044
 C        -2.211609         2.021541         0.341169
 C        -1.890152         2.386451        -1.053592
 C        -0.703763         1.424924        -1.358239
 O        -2.826024         2.741962         1.364221
 C        -1.527768         2.533822         2.111847
 C        -0.722804         2.158104         0.910770
 H         0.720304        -0.566402        -0.228367
 H        -2.536032        -0.214735        -0.455364
 H        -2.377851        -0.131690         1.301023
 H        -2.696880         2.151797        -1.816223
 H        -1.627937         3.420360        -1.181253
 H        -0.943017         0.636338        -2.104552
 H         0.216646         1.972635        -1.765158
 H        -1.207012         3.494954         2.619138
 H        -1.728341         1.725659         2.883189
 H         0.111267         2.913248         0.539646
