19
Iteration:  4862charge 0 multiplicity 1
 O         0.206889        -0.347626         0.366374
 C        -0.642496         0.821208         0.124192
 C        -2.187543         0.583673         0.160397
 C        -2.183787         2.122762         0.273602
 C        -1.661419         2.499235        -1.211467
 C        -0.436432         1.511896        -1.200942
 O        -2.901974         2.724120         1.473127
 C        -1.764663         2.209156         2.330715
 C        -0.828288         2.040266         1.025227
 H         0.848714         0.158564         0.868675
 H        -2.675569         0.132705        -0.683484
 H        -2.374027         0.099936         1.122754
 H        -2.471518         2.389809        -1.930990
 H        -1.334031         3.538905        -1.370696
 H        -0.425168         0.807787        -1.959201
 H         0.521762         2.103658        -1.106498
 H        -1.265773         2.950522         3.029118
 H        -1.907746         1.265718         2.866424
 H         0.065570         2.709683         0.848818
