19
Iteration:  3900
 O         0.374931        -0.284705         0.449717
 C        -0.616358         0.682624         0.120751
 C        -2.232640         0.524313         0.168738
 C        -2.160501         2.141120         0.306557
 C        -1.813063         2.481314        -1.100579
 C        -0.612177         1.437737        -1.186556
 O        -2.752981         2.878771         1.417930
 C        -1.762448         2.254935         2.241640
 C        -0.789628         2.005167         1.041381
 H         0.873722        -0.321335        -0.390762
 H        -2.605480         0.288694        -0.792150
 H        -2.738779         0.031457         1.010959
 H        -2.696880         2.429356        -1.788353
 H        -1.478646         3.445931        -1.104110
 H        -0.632807         0.839844        -2.172349
 H         0.328993         2.033907        -1.277660
 H        -1.575244         2.928375         3.164554
 H        -2.146121         1.318010         2.676503
 H        -0.016400         2.819402         0.836572
