19
Iteration:  3951charge 0 multiplicity 1
 O         0.320413        -0.371246         0.347139
 C        -0.618547         0.714274         0.133812
 C        -2.156446         0.534840         0.301841
 C        -2.146904         2.126781         0.333058
 C        -1.698121         2.578058        -1.150630
 C        -0.481253         1.546102        -1.318246
 O        -2.968768         2.702998         1.422808
 C        -1.708052         2.328242         2.292367
 C        -0.772884         2.082115         1.008385
 H        -0.346253        -1.041687         0.600129
 H        -2.840524         0.009726        -0.423832
 H        -2.338423         0.137996         1.354433
 H        -2.463495         2.392435        -1.923226
 H        -1.633418         3.742670        -1.090791
 H        -0.649202         0.951955        -2.161414
 H         0.527719         1.856620        -1.379790
 H        -1.403304         3.053258         3.091128
 H        -1.957665         1.404611         2.784497
 H        -0.113783         2.903561         0.759755
