19
Iteration:  4427
 O         0.359299        -0.263022         0.198319
 C        -0.697213         0.688672         0.264028
 C        -2.170435         0.598362         0.248549
 C        -2.121014         2.233370         0.301062
 C        -1.729700         2.548571        -1.224413
 C        -0.581131         1.401752        -1.153445
 O        -2.843168         2.679243         1.397808
 C        -1.751008         2.366142         2.245366
 C        -0.793026         1.987741         1.107246
 H         0.058599        -1.079666         0.659419
 H        -2.765678         0.030678        -0.449927
 H        -2.544732         0.294714         1.286559
 H        -2.563068         2.302676        -1.812247
 H        -1.135106         3.508362        -1.315423
 H        -0.850048         0.763214        -1.919799
 H         0.482223         1.824124        -1.129263
 H        -1.474028         3.245083         2.817654
 H        -1.918482         1.507783         3.009033
 H        -0.005051         2.695803         0.986060
