19
Iteration:  2262
 O         0.425598        -0.281454         0.307982
 C        -0.640376         0.730272         0.234363
 C        -2.187310         0.478170         0.439046
 C        -2.149099         2.122758         0.352234
 C        -1.875404         2.414429        -1.119272
 C        -0.732049         1.395007        -1.248445
 O        -2.806518         2.909727         1.251059
 C        -1.659053         2.425622         2.290649
 C        -0.684477         1.996461         0.973535
 H         0.057685        -1.074865        -0.149338
 H        -2.698321        -0.082131        -0.336963
 H        -2.592103         0.018097         1.337211
 H        -2.698764         2.267709        -1.845038
 H        -1.603486         3.435034        -1.144221
 H        -0.807657         0.574888        -2.014949
 H         0.296200         1.714655        -1.434156
 H        -1.191887         3.259733         2.745409
 H        -2.126288         1.784288         3.069409
 H         0.018936         2.950094         0.900024
