19
Iteration:   185charge 0 multiplicity 1
 O         0.260856        -0.361050         0.227528
 C        -0.647744         0.770526         0.233177
 C        -2.080365         0.434988         0.511357
 C        -2.145664         2.117421         0.291539
 C        -1.881578         2.272482        -1.238169
 C        -0.669778         1.372079        -1.240394
 O        -2.845803         2.783143         1.382186
 C        -1.627735         2.632968         2.246380
 C        -0.753051         2.138611         1.026025
 H         1.151818        -0.024190         0.392747
 H        -2.475450        -0.161041        -0.246730
 H        -2.333318         0.294150         1.559374
 H        -2.632014         1.802729        -1.873343
 H        -1.719766         3.323249        -1.639755
 H        -0.775161         0.602844        -2.059924
 H         0.278116         1.870038        -1.344856
 H        -1.278992         3.598982         2.583575
 H        -1.850570         1.948405         3.065938
 H         0.076242         2.763648         0.984608
