19
Iteration:  3682
 O         0.132066        -0.363653         0.337379
 C        -0.613953         0.723293         0.086400
 C        -2.146716         0.549993         0.164090
 C        -2.037688         2.159686         0.319186
 C        -1.813485         2.532808        -1.069010
 C        -0.470849         1.525701        -1.233780
 O        -2.858627         2.659119         1.366791
 C        -1.715213         2.362830         2.362033
 C        -0.765037         2.011346         1.077098
 H         1.020205        -0.089778         0.629718
 H        -2.592173         0.041684        -0.659476
 H        -2.491049         0.045113         1.050717
 H        -2.752036         2.047867        -1.579256
 H        -1.681711         3.589197        -1.263381
 H        -0.507264         0.899997        -2.198964
 H         0.387019         2.142771        -1.252759
 H        -1.415699         3.346881         2.781048
 H        -2.127504         1.598119         2.951953
 H        -0.046297         2.898611         0.939100
