19
Iteration:  4561
 O         0.303458        -0.291860         0.302883
 C        -0.645971         0.728890         0.133051
 C        -2.176365         0.494623         0.360704
 C        -2.146229         2.029633         0.352148
 C        -1.683196         2.586078        -1.030164
 C        -0.559694         1.550510        -1.267664
 O        -2.867739         2.730866         1.279776
 C        -1.722210         2.371990         2.214102
 C        -0.773019         2.024537         1.068892
 H        -0.213199        -1.067755         0.541135
 H        -2.668388         0.032916        -0.538081
 H        -2.300624         0.007269         1.308286
 H        -2.573557         2.374951        -1.688105
 H        -1.470184         3.726660        -1.005647
 H        -0.710992         0.840297        -2.110130
 H         0.403148         2.015727        -1.440576
 H        -1.444373         3.040853         3.019186
 H        -2.138799         1.484283         2.804793
 H         0.047373         2.732885         0.946497
