19
Iteration:  3254
 O         0.389815        -0.289824         0.238238
 C        -0.614570         0.736902         0.137970
 C        -2.212623         0.536389         0.325255
 C        -2.075628         2.218647         0.278527
 C        -1.727226         2.567349        -1.160682
 C        -0.648145         1.377227        -1.279956
 O        -2.880123         2.816181         1.399087
 C        -1.759639         2.208372         2.300809
 C        -0.795303         2.039893         1.092680
 H         0.122311        -0.681452         1.084594
 H        -2.773833         0.022460        -0.426401
 H        -2.509946         0.355072         1.445063
 H        -2.463584         2.358518        -1.884195
 H        -1.258209         3.565151        -1.191004
 H        -0.757171         0.621192        -2.031107
 H         0.395718         1.800573        -1.437831
 H        -1.443139         2.860089         3.112698
 H        -2.108717         1.304263         2.910851
 H         0.059585         2.804922         1.013072
