19
Iteration:  1054
 O         0.296872        -0.240568         0.340207
 C        -0.662042         0.735523         0.171274
 C        -2.103989         0.556294         0.302293
 C        -2.057876         2.172434         0.252260
 C        -1.824609         2.398566        -1.218661
 C        -0.579708         1.341850        -1.243894
 O        -2.880384         2.696642         1.412325
 C        -1.679612         2.473327         2.314209
 C        -0.804001         2.094648         1.053715
 H         0.091829        -0.703227         1.166964
 H        -2.454449         0.037704        -0.595761
 H        -2.396465         0.060740         1.228157
 H        -2.719461         2.005455        -1.705805
 H        -1.639137         3.498169        -1.594095
 H        -0.722247         0.560862        -1.977065
 H         0.447571         1.869178        -1.434714
 H        -1.494149         3.360061         2.853457
 H        -1.768216         1.509553         2.869664
 H        -0.048168         2.880936         0.711796
