19
Iteration:  3599
 O         0.301107        -0.397638         0.330553
 C        -0.670705         0.625671         0.199184
 C        -2.164892         0.489573         0.168265
 C        -2.092406         2.211123         0.303790
 C        -1.827203         2.584223        -1.147597
 C        -0.564102         1.548593        -1.148386
 O        -2.826719         2.766657         1.374344
 C        -1.717411         2.308058         2.238161
 C        -0.813892         1.990701         1.076341
 H         1.096818         0.078316         0.630908
 H        -2.660138         0.057181        -0.795755
 H        -2.496361        -0.018956         1.164146
 H        -2.680366         2.346579        -1.737144
 H        -1.647725         3.687272        -1.212792
 H        -0.615120         0.905081        -2.069479
 H         0.402818         2.183267        -1.154062
 H        -1.330004         3.153988         2.856339
 H        -1.980786         1.514509         3.023154
 H        -0.057484         2.729244         0.875574
