19
Iteration:  4268
 O         0.296796        -0.247330         0.149973
 C        -0.693327         0.722093         0.231150
 C        -2.181895         0.557791         0.277900
 C        -2.127270         2.134589         0.325697
 C        -1.723346         2.465151        -1.188059
 C        -0.531709         1.482222        -1.248238
 O        -2.765639         2.837930         1.377562
 C        -1.861346         2.325418         2.321422
 C        -0.743714         1.904002         1.144939
 H         0.288963        -0.562566         1.084860
 H        -2.796269         0.043178        -0.435271
 H        -2.460173         0.197281         1.324221
 H        -2.487265         2.023953        -1.858970
 H        -1.601097         3.452515        -1.429427
 H        -0.446621         0.619093        -1.984536
 H         0.372644         2.053976        -0.997930
 H        -1.376259         3.171604         2.849751
 H        -2.251827         1.436223         2.822328
 H         0.031398         2.670089         0.935249
