19
Iteration:  4871charge 0 multiplicity 1
 O         0.208780        -0.313533         0.417696
 C        -0.641558         0.746700         0.164078
 C        -2.149297         0.574224         0.182766
 C        -2.100234         2.103718         0.268571
 C        -1.694261         2.587652        -1.215817
 C        -0.475697         1.512702        -1.262288
 O        -2.931490         2.737192         1.449532
 C        -1.707779         2.170045         2.308801
 C        -0.812834         2.036541         1.039705
 H         1.018488        -0.012020         0.840853
 H        -2.585559         0.295129        -0.705308
 H        -2.750277         0.148880         1.031728
 H        -2.299545         2.326766        -2.079070
 H        -1.485580         3.627586        -1.051427
 H        -0.672794         0.679776        -1.959044
 H         0.493178         1.889683        -1.598132
 H        -1.519331         2.857476         3.201781
 H        -2.046366         1.262609         2.770718
 H        -0.196781         3.007364         0.982221
