19
Iteration:   802
 O         0.342636        -0.157829         0.641693
 C        -0.634687         0.785912         0.216599
 C        -2.239062         0.592179         0.379352
 C        -2.119624         2.073921         0.296283
 C        -1.944000         2.294967        -1.241985
 C        -0.680865         1.408702        -1.356738
 O        -2.740604         2.770568         1.367548
 C        -1.604493         2.326820         2.147486
 C        -0.699580         2.052737         0.956632
 H         0.611880        -0.732473        -0.092557
 H        -2.786151         0.114776        -0.434257
 H        -2.656706         0.507245         1.382201
 H        -2.815845         1.915980        -1.816256
 H        -1.767976         3.364240        -1.418398
 H        -0.926305         0.617432        -2.104040
 H         0.282805         1.949567        -1.742955
 H        -1.255217         3.189706         2.770985
 H        -1.800302         1.599375         2.936729
 H        -0.026286         2.895706         0.749509
