19
Iteration:  1532
 O         0.250581        -0.308264         0.580296
 C        -0.591508         0.769052         0.190920
 C        -2.145023         0.515492         0.351534
 C        -2.131633         2.069751         0.221736
 C        -1.810090         2.486009        -1.198357
 C        -0.628292         1.419887        -1.307477
 O        -2.838740         2.731395         1.416193
 C        -1.618934         2.397623         2.205964
 C        -0.817682         2.105947         0.948016
 H         0.618393        -0.678965        -0.243587
 H        -2.656017        -0.087498        -0.404091
 H        -2.460446         0.336823         1.412309
 H        -2.680322         2.308045        -1.788932
 H        -1.381558         3.578932        -1.256659
 H        -0.999023         0.640238        -1.965815
 H         0.285820         1.887881        -1.840496
 H        -1.193123         3.303932         2.893076
 H        -1.656167         1.449199         2.738209
 H        -0.133452         2.969580         0.714080
