19
Iteration:  1936
 O         0.244670        -0.299888         0.486847
 C        -0.649615         0.717928         0.185524
 C        -2.147605         0.589819         0.345760
 C        -2.209632         2.065891         0.274565
 C        -1.839923         2.512490        -1.210471
 C        -0.642263         1.438741        -1.331717
 O        -2.840548         2.663228         1.437062
 C        -1.494098         2.473922         2.135379
 C        -0.711411         1.980064         0.965772
 H         0.313680        -0.389457         1.453307
 H        -2.858436         0.147757        -0.295857
 H        -2.435578         0.466553         1.380193
 H        -2.667152         2.234849        -1.863368
 H        -1.543109         3.546264        -1.312474
 H        -0.975736         0.678105        -2.036669
 H         0.341246         1.805868        -1.560210
 H        -1.347216         3.479504         2.602683
 H        -1.539295         1.818650         3.001887
 H        -0.001048         2.689310         0.607024
