19
Iteration:  3431charge 0 multiplicity 1
 O         0.194863        -0.450966         0.289458
 C        -0.634747         0.722878         0.100724
 C        -2.119660         0.509739         0.204470
 C        -2.155751         2.103614         0.388946
 C        -1.731721         2.501558        -1.141528
 C        -0.465007         1.628858        -1.168381
 O        -2.880342         2.746113         1.438719
 C        -1.702063         2.398987         2.257179
 C        -0.850171         2.013350         1.047241
 H         1.078816        -0.037531         0.356352
 H        -2.819303        -0.020979        -0.538643
 H        -2.259777         0.102966         1.205603
 H        -2.613622         2.173686        -1.714467
 H        -1.647030         3.522518        -1.335613
 H        -0.406138         0.849978        -2.055416
 H         0.466328         2.165702        -1.101607
 H        -1.337721         3.293852         2.844724
 H        -2.043626         1.564968         2.909988
 H        -0.130453         2.751548         0.653624
