19
Iteration:  2259
 O         0.422781        -0.257373         0.297678
 C        -0.630614         0.738298         0.218921
 C        -2.196187         0.491831         0.425297
 C        -2.137004         2.093086         0.369330
 C        -1.874701         2.391422        -1.115099
 C        -0.703600         1.376443        -1.243197
 O        -2.813127         2.954125         1.280691
 C        -1.662369         2.401198         2.289170
 C        -0.715241         1.998859         0.983680
 H         0.034518        -1.055958        -0.075895
 H        -2.643174        -0.135311        -0.454516
 H        -2.575029        -0.019104         1.312006
 H        -2.626784         2.174670        -1.888198
 H        -1.571476         3.461672        -1.184174
 H        -0.896302         0.563130        -2.008847
 H         0.270574         1.733535        -1.539460
 H        -1.277277         3.274375         2.715242
 H        -2.124922         1.864409         3.115377
 H         0.117872         2.752103         0.757670
