19
Iteration:  4973
 O         0.156802        -0.444979         0.312965
 C        -0.557806         0.764685         0.139483
 C        -2.098858         0.598088         0.268240
 C        -2.060113         2.047236         0.281913
 C        -1.799658         2.523681        -1.157222
 C        -0.437195         1.680852        -1.185346
 O        -2.853849         2.673390         1.300653
 C        -1.890260         2.368494         2.328952
 C        -0.780500         1.918168         1.137377
 H         1.143376        -0.310897         0.292914
 H        -2.711636         0.095468        -0.515823
 H        -2.350147         0.305553         1.228038
 H        -2.539109         2.282686        -1.910192
 H        -1.569017         3.590065        -1.215589
 H        -0.458954         1.245599        -2.121832
 H         0.444867         2.429756        -1.219208
 H        -1.562705         3.276010         2.779449
 H        -2.244881         1.498985         2.957325
 H        -0.094558         2.748027         1.281423
