19
Iteration:  1489charge 0 multiplicity 1
 O         0.424466        -0.165181         0.433986
 C        -0.689338         0.744178         0.226136
 C        -2.229092         0.492037         0.298727
 C        -2.117038         2.111252         0.297604
 C        -1.834601         2.309847        -1.241772
 C        -0.673629         1.393594        -1.290995
 O        -2.696957         2.914242         1.381736
 C        -1.715490         2.298483         2.220949
 C        -0.829242         2.019133         1.111545
 H         0.345141        -0.942372        -0.185247
 H        -2.706807        -0.030913        -0.514372
 H        -2.619058         0.424214         1.344966
 H        -2.542717         2.030739        -2.014426
 H        -1.599524         3.486780        -1.401940
 H        -0.773444         0.655654        -2.050859
 H         0.330490         1.981504        -1.450754
 H        -1.217864         3.051867         3.013359
 H        -2.235428         1.658591         2.884440
 H        -0.133154         2.928202         1.001686
