19
Iteration:  1516
 O         0.310120        -0.231795         0.571445
 C        -0.670994         0.763213         0.156085
 C        -2.128834         0.623446         0.335885
 C        -2.132941         2.191559         0.343761
 C        -1.864153         2.410272        -1.184417
 C        -0.690687         1.323481        -1.280037
 O        -2.859961         2.779094         1.369288
 C        -1.658175         2.265606         2.169797
 C        -0.642856         2.084230         0.948897
 H         0.658790        -0.748121        -0.201646
 H        -2.612380         0.148216        -0.561439
 H        -2.369881         0.082558         1.229361
 H        -2.670244         2.277124        -1.988467
 H        -1.540579         3.370136        -1.396161
 H        -0.748344         0.591211        -2.142761
 H         0.191451         1.882601        -1.312302
 H        -1.417389         3.057289         2.807733
 H        -1.984958         1.525672         2.951365
 H         0.171340         2.765401         0.832362
