19
Iteration:  4222charge 0 multiplicity 1
 O         0.236164        -0.283400         0.346300
 C        -0.666709         0.728341         0.161754
 C        -2.125568         0.521265         0.250107
 C        -2.030667         2.085093         0.309316
 C        -1.842760         2.588656        -1.070595
 C        -0.536912         1.488914        -1.234855
 O        -2.799406         2.708534         1.354096
 C        -1.740699         2.330716         2.209828
 C        -0.762700         2.038143         1.062305
 H        -0.263886        -0.939321         0.857918
 H        -2.516757        -0.048105        -0.594626
 H        -2.435598         0.198045         1.273857
 H        -2.607295         2.475900        -1.776732
 H        -1.333707         3.560388        -1.091438
 H        -0.901152         0.825161        -2.044657
 H         0.409981         2.107201        -1.497056
 H        -1.442954         3.162940         2.774624
 H        -2.067563         1.390774         2.776514
 H         0.064891         2.736436         0.996551
