19
Iteration:  2487charge 0 multiplicity 1
 O         0.354378        -0.174804         0.320209
 C        -0.639443         0.725570         0.151111
 C        -2.176635         0.555898         0.492787
 C        -2.056070         2.197642         0.261555
 C        -1.863314         2.425738        -1.243713
 C        -0.756982         1.278702        -1.349438
 O        -2.771347         2.758574         1.449632
 C        -1.673808         2.415175         2.234505
 C        -0.710620         2.058854         1.060406
 H         0.206741        -1.109556         0.459789
 H        -2.760436        -0.165274        -0.133403
 H        -2.323237         0.285499         1.578546
 H        -2.729266         2.280578        -1.894238
 H        -1.295814         3.381714        -1.439844
 H        -1.028937         0.360007        -1.961837
 H         0.080708         1.754600        -1.754025
 H        -1.401157         3.221921         2.922122
 H        -2.272329         1.687747         2.887534
 H         0.143796         2.726326         0.868958
