19
Iteration:  1962charge 0 multiplicity 1
 O         0.299755        -0.231508         0.364834
 C        -0.665476         0.697626         0.168047
 C        -2.155029         0.421950         0.288437
 C        -2.107238         2.083211         0.324850
 C        -1.863699         2.370579        -1.142380
 C        -0.693852         1.354716        -1.245391
 O        -2.760978         2.888461         1.423818
 C        -1.613438         2.519088         2.218183
 C        -0.711428         2.061515         0.975994
 H        -0.024626        -0.756001         1.108200
 H        -2.575975        -0.022244        -0.664484
 H        -2.646327         0.112044         1.241743
 H        -2.804942         2.137457        -1.680781
 H        -1.551166         3.401482        -1.347646
 H        -0.889712         0.656360        -2.063837
 H         0.293044         1.834838        -1.348619
 H        -1.374920         3.286145         2.969787
 H        -1.937073         1.568502         2.602718
 H         0.039267         2.817541         0.649997
