19
Iteration:   911
 O         0.197938        -0.342581         0.419511
 C        -0.633894         0.745858         0.204814
 C        -2.119679         0.485541         0.275668
 C        -2.121039         2.033638         0.314031
 C        -1.917275         2.322653        -1.214674
 C        -0.609127         1.430943        -1.194473
 O        -2.797070         2.739368         1.381882
 C        -1.610974         2.549234         2.240114
 C        -0.741064         2.130898         0.986720
 H         1.106648         0.040177         0.500213
 H        -2.560919         0.043313        -0.618562
 H        -2.540178         0.051402         1.157113
 H        -2.796815         1.969138        -1.806579
 H        -1.824487         3.428053        -1.380928
 H        -0.432972         0.857969        -2.091148
 H         0.204883         2.242281        -1.126739
 H        -1.232619         3.486400         2.678525
 H        -1.741942         1.759312         2.945173
 H        -0.145440         3.022793         0.716296
