19
Iteration:  2415charge 0 multiplicity 1
 O         0.251391        -0.337998         0.285828
 C        -0.662757         0.705888         0.147608
 C        -2.197320         0.489243         0.399398
 C        -2.080586         2.080615         0.318147
 C        -1.909746         2.377032        -1.167208
 C        -0.586531         1.507619        -1.267278
 O        -2.818264         2.767076         1.379200
 C        -1.559308         2.483417         2.218459
 C        -0.765120         2.054125         1.040579
 H         0.511364        -0.078082         1.188116
 H        -2.998916        -0.002513        -0.169043
 H        -2.325195         0.403614         1.514229
 H        -2.843154         2.048045        -1.671110
 H        -1.685115         3.420835        -1.302453
 H        -0.718295         0.729490        -2.052420
 H         0.342479         2.088591        -1.428341
 H        -0.994683         3.365903         2.522806
 H        -1.680135         1.748276         3.031473
 H         0.014851         2.673960         0.581105
