19
Iteration:  4137
 O         0.365596        -0.373743         0.247854
 C        -0.598097         0.678529         0.088559
 C        -2.177396         0.626940         0.306065
 C        -2.067177         2.146225         0.337964
 C        -1.845904         2.558189        -1.102427
 C        -0.556273         1.503455        -1.226137
 O        -2.803758         2.850574         1.293004
 C        -1.910769         2.239264         2.297571
 C        -0.765773         1.968015         1.127212
 H         0.355239        -0.501159         1.215047
 H        -2.632692        -0.053558        -0.410219
 H        -2.154258         0.106632         1.332030
 H        -2.742046         2.248687        -1.706869
 H        -1.564761         3.545505        -1.431680
 H        -0.545641         0.863109        -2.118443
 H         0.402310         2.013290        -1.353981
 H        -1.360270         2.996854         2.927761
 H        -2.344579         1.471743         2.947996
 H         0.073620         2.678789         1.126184
