19
Iteration:  1298charge 0 multiplicity 1
 O         0.227010        -0.367990         0.489602
 C        -0.600319         0.715758         0.134487
 C        -2.166483         0.572513         0.338340
 C        -2.155476         2.044560         0.306097
 C        -1.808507         2.433336        -1.122029
 C        -0.522421         1.565166        -1.206315
 O        -2.884776         2.726652         1.382938
 C        -1.679650         2.443397         2.145828
 C        -0.769602         2.030157         0.957701
 H         0.935605        -0.292880        -0.189667
 H        -2.637380        -0.058936        -0.414849
 H        -2.152729         0.227807         1.388396
 H        -2.614941         2.159755        -1.894418
 H        -1.612711         3.482569        -1.108811
 H        -0.828037         0.759450        -1.988797
 H         0.406866         2.017501        -1.465388
 H        -1.244782         3.418866         2.497197
 H        -1.847565         1.793983         3.034159
 H        -0.040353         2.733315         0.678401
