19
Iteration:  4563charge 0 multiplicity 1
 O         0.297715        -0.293099         0.312742
 C        -0.645374         0.752247         0.133745
 C        -2.172547         0.487030         0.347808
 C        -2.134601         2.033607         0.351291
 C        -1.681958         2.577669        -1.052541
 C        -0.553098         1.554822        -1.274098
 O        -2.883955         2.731800         1.301197
 C        -1.715458         2.365583         2.211909
 C        -0.776882         2.012670         1.068891
 H        -0.218964        -1.075460         0.520605
 H        -2.659335         0.040671        -0.526259
 H        -2.361588         0.064724         1.304647
 H        -2.594466         2.342478        -1.638991
 H        -1.431520         3.648566        -0.996400
 H        -0.706159         0.863515        -2.159210
 H         0.379544         2.009151        -1.357413
 H        -1.418881         3.055617         3.040697
 H        -2.099657         1.534399         2.790384
 H         0.071076         2.740653         0.887843
