19
Iteration:  2375
 O         0.280051        -0.354692         0.247592
 C        -0.637597         0.777659         0.173403
 C        -2.127605         0.476033         0.401187
 C        -2.070549         2.111762         0.326010
 C        -1.838939         2.434661        -1.177075
 C        -0.711846         1.301136        -1.284172
 O        -2.782328         2.871721         1.392140
 C        -1.669150         2.450472         2.206549
 C        -0.795444         2.079151         1.108909
 H         1.234452        -0.194937         0.384177
 H        -2.727312        -0.019258        -0.345855
 H        -2.130476         0.099419         1.404487
 H        -2.659078         2.206125        -1.845126
 H        -1.700306         3.527284        -1.334954
 H        -1.121896         0.426380        -1.716735
 H         0.316183         1.655110        -1.609721
 H        -1.495284         3.290551         3.031140
 H        -1.834829         1.672871         2.944122
 H        -0.214010         3.137647         0.928557
