19
Iteration:  2183
 O         0.207146        -0.302298         0.409842
 C        -0.553119         0.738142         0.125647
 C        -2.107438         0.469735         0.324362
 C        -2.108344         2.083717         0.314774
 C        -1.868451         2.384244        -1.183953
 C        -0.650138         1.405244        -1.386769
 O        -2.773900         2.744509         1.430315
 C        -1.570068         2.509161         2.282758
 C        -0.848189         2.168786         1.013048
 H         0.044949        -0.671576         1.305386
 H        -2.655446         0.138051        -0.596372
 H        -2.533335         0.075860         1.245374
 H        -2.678350         2.214782        -1.874662
 H        -1.480171         3.427313        -1.216999
 H        -0.966212         0.557263        -2.040165
 H         0.297931         1.831072        -1.662291
 H        -1.452026         3.370351         2.827300
 H        -1.633293         1.719331         3.030095
 H         0.014457         2.799264         0.798118
