19
Iteration:  1526charge 0 multiplicity 1
 O         0.263344        -0.284524         0.579363
 C        -0.582892         0.741956         0.181697
 C        -2.113690         0.539797         0.339766
 C        -2.121419         2.151150         0.239037
 C        -1.841533         2.439404        -1.166635
 C        -0.678771         1.406642        -1.309403
 O        -2.883463         2.749111         1.420991
 C        -1.602752         2.359094         2.156723
 C        -0.752453         2.120587         0.976509
 H         0.680603        -0.765113        -0.178896
 H        -2.732760         0.002448        -0.396729
 H        -2.532186         0.320823         1.307329
 H        -2.658672         2.319078        -1.963585
 H        -1.361531         3.353681        -1.211610
 H        -0.870074         0.603737        -2.068751
 H         0.239160         1.857069        -1.586364
 H        -1.176166         3.090450         2.681362
 H        -1.886656         1.400324         2.679906
 H        -0.041956         2.928778         0.870283
