19
Iteration:   686
 O         0.363043        -0.150117         0.537878
 C        -0.638560         0.722708         0.217303
 C        -2.144664         0.444446         0.407169
 C        -2.228815         2.176070         0.281601
 C        -1.919155         2.277949        -1.246163
 C        -0.670966         1.332887        -1.392457
 O        -2.749117         2.895499         1.447467
 C        -1.536507         2.405395         2.189620
 C        -0.788975         2.135886         0.896477
 H        -0.037183        -0.974805         0.798182
 H        -2.693364        -0.141254        -0.399516
 H        -2.372045         0.008936         1.401255
 H        -2.690663         1.914848        -1.836135
 H        -1.739087         3.397052        -1.501305
 H        -0.863805         0.446085        -1.926165
 H         0.289062         1.671186        -1.658979
 H        -1.280100         3.088941         2.898914
 H        -1.808471         1.472122         2.738706
 H        -0.069719         2.908360         0.620544
