19
Iteration:  3827
 O         0.187937        -0.426439         0.302728
 C        -0.633364         0.714573         0.182873
 C        -2.130104         0.503841         0.187663
 C        -2.124885         2.103364         0.276247
 C        -1.774857         2.549873        -1.170495
 C        -0.517813         1.570228        -1.312706
 O        -2.890783         2.703829         1.503438
 C        -1.740424         2.442465         2.304236
 C        -0.748542         2.053019         1.114212
 H         0.919624        -0.198370         0.905373
 H        -2.520423         0.063351        -0.757410
 H        -2.400484        -0.006402         1.137445
 H        -2.455209         2.141128        -1.975913
 H        -1.514561         3.703889        -1.301425
 H        -0.629651         0.785256        -2.107160
 H         0.485716         2.000930        -1.346825
 H        -1.360003         3.281857         2.842558
 H        -2.009112         1.630262         3.039463
 H         0.176738         2.551008         0.820997
