19
Iteration:   886
 O         0.282225        -0.364018         0.285515
 C        -0.637040         0.751524         0.237729
 C        -2.135058         0.533873         0.427109
 C        -2.145290         2.130214         0.325757
 C        -1.873117         2.342159        -1.245613
 C        -0.581979         1.513805        -1.239283
 O        -2.857695         2.680149         1.323160
 C        -1.686098         2.611547         2.215241
 C        -0.697921         1.939297         1.079165
 H         0.956483        -0.096108         0.943142
 H        -2.832837         0.061737        -0.225626
 H        -2.403805         0.234990         1.464691
 H        -2.762230         1.831645        -1.835713
 H        -1.949722         3.347425        -1.552278
 H        -0.690166         0.762512        -2.061467
 H         0.258413         2.152246        -1.524957
 H        -1.120708         3.613026         2.341288
 H        -1.949757         2.075872         3.127368
 H         0.196004         2.724308         1.116903
