19
Iteration:  2226charge 0 multiplicity 1
 O         0.383427        -0.192263         0.399825
 C        -0.689408         0.731392         0.181457
 C        -2.241829         0.520897         0.404030
 C        -2.113152         2.131096         0.303664
 C        -1.886098         2.391714        -1.252711
 C        -0.679859         1.342043        -1.290703
 O        -2.735687         2.838006         1.380265
 C        -1.627996         2.341504         2.355113
 C        -0.733975         2.086451         0.939863
 H        -0.077706        -1.024837         0.620471
 H        -2.637874        -0.018330        -0.529887
 H        -2.532325         0.211474         1.409458
 H        -2.704405         2.130675        -1.927971
 H        -1.526375         3.427974        -1.506188
 H        -0.802860         0.573956        -2.093180
 H         0.231363         1.925643        -1.445170
 H        -1.286262         3.242804         2.802807
 H        -2.007675         1.500194         2.977999
 H         0.074342         2.810665         0.663397
