19
Iteration:  4988charge 0 multiplicity 1
 O         0.211607        -0.462226         0.357483
 C        -0.621381         0.723787         0.116257
 C        -2.049783         0.480826         0.246365
 C        -2.098486         2.182538         0.302720
 C        -1.758193         2.641315        -1.097175
 C        -0.502840         1.619135        -1.276624
 O        -2.920272         2.737732         1.304773
 C        -1.849864         2.247211         2.251346
 C        -0.774145         2.045468         1.159664
 H         1.073210        -0.193486         0.745576
 H        -2.575667        -0.060345        -0.571316
 H        -2.247147        -0.117550         1.271304
 H        -2.571257         2.303914        -1.783577
 H        -1.460047         3.716754        -1.102183
 H        -0.310669         0.870254        -2.134713
 H         0.451950         2.119174        -1.272488
 H        -1.565295         3.051997         2.960483
 H        -2.233047         1.530909         2.989355
 H         0.040688         2.726445         1.002847
