19
Iteration:  2514charge 0 multiplicity 1
 O         0.354605        -0.275041         0.342153
 C        -0.547086         0.753341         0.138642
 C        -2.191787         0.449020         0.379881
 C        -2.166270         1.973916         0.317603
 C        -1.936332         2.414977        -1.061160
 C        -0.698116         1.414463        -1.150597
 O        -2.774509         2.863720         1.359355
 C        -1.540062         2.501388         2.150165
 C        -0.786593         2.068506         0.979591
 H        -0.034213        -1.143043         0.208170
 H        -2.822087         0.109280        -0.500861
 H        -2.550081        -0.121445         1.271852
 H        -2.669594         2.288413        -1.901552
 H        -1.598369         3.454990        -1.068555
 H        -0.929561         0.566423        -1.776002
 H         0.268051         1.909104        -1.556922
 H        -1.134198         3.433626         2.597449
 H        -1.912903         1.955766         3.010553
 H        -0.076997         2.869253         0.583555
