19
Iteration:  1134
 O         0.316424        -0.298714         0.302500
 C        -0.584374         0.731891         0.247992
 C        -2.137936         0.576582         0.293473
 C        -2.093869         2.107097         0.320007
 C        -1.864269         2.346206        -1.174797
 C        -0.563298         1.403980        -1.251559
 O        -2.823588         2.812623         1.383135
 C        -1.757218         2.369950         2.272229
 C        -0.753154         2.150098         0.980709
 H         0.301539        -0.619215         1.210676
 H        -2.699349        -0.026101        -0.468128
 H        -2.622844         0.378008         1.294698
 H        -2.727307         1.893725        -1.719510
 H        -1.725303         3.422779        -1.441497
 H        -0.681063         0.588478        -2.076223
 H         0.407212         1.859958        -1.488688
 H        -1.522576         3.202746         2.903358
 H        -1.994316         1.482197         2.848302
 H        -0.146987         3.013593         0.843960
