19
Iteration:  3628
 O         0.293209        -0.188533         0.399179
 C        -0.665949         0.704279         0.086540
 C        -2.261938         0.567273         0.164623
 C        -2.142187         2.132730         0.305741
 C        -1.662153         2.505870        -1.108807
 C        -0.623477         1.447801        -1.263224
 O        -2.734551         2.758386         1.407680
 C        -1.776032         2.226552         2.292721
 C        -0.775470         1.937204         1.114862
 H         0.990036         0.408371         0.717521
 H        -2.878115         0.213118        -0.667515
 H        -2.395357        -0.153237         0.952129
 H        -2.489419         2.561914        -1.937479
 H        -1.405486         3.544830        -0.995678
 H        -1.031599         0.687561        -2.057746
 H         0.293954         1.736058        -1.674992
 H        -1.437537         3.034714         3.007766
 H        -2.189600         1.403778         2.869749
 H        -0.088497         2.826408         0.908120
