19
Iteration:  2358
 O         0.286022        -0.284306         0.384615
 C        -0.674352         0.725989         0.120720
 C        -2.105731         0.525891         0.450058
 C        -2.109599         2.086958         0.311542
 C        -1.850841         2.376913        -1.108719
 C        -0.706302         1.354241        -1.341531
 O        -2.769034         2.905087         1.354469
 C        -1.684301         2.357747         2.317790
 C        -0.725538         2.053843         0.949777
 H         1.134938         0.089859         0.067934
 H        -2.776660        -0.076740        -0.250803
 H        -2.474765         0.192941         1.450339
 H        -2.728448         2.376517        -1.809115
 H        -1.370217         3.377767        -1.179464
 H        -0.935513         0.652473        -2.204617
 H         0.162265         1.853330        -1.744091
 H        -1.388766         3.162902         2.944516
 H        -2.227108         1.589202         2.965713
 H         0.031826         2.715028         0.680093
