19
Iteration:  1053
 O         0.290173        -0.245644         0.344815
 C        -0.658451         0.730772         0.158197
 C        -2.102131         0.553747         0.297519
 C        -2.049114         2.170581         0.263172
 C        -1.832809         2.406379        -1.227497
 C        -0.580281         1.346926        -1.235964
 O        -2.876568         2.690774         1.398867
 C        -1.675933         2.469934         2.324198
 C        -0.805830         2.106340         1.059433
 H         0.068363        -0.740584         1.161290
 H        -2.436035         0.024959        -0.585881
 H        -2.371942         0.085380         1.222687
 H        -2.746460         1.992247        -1.691227
 H        -1.674048         3.468512        -1.634175
 H        -0.709851         0.581849        -1.947496
 H         0.429643         1.883507        -1.398555
 H        -1.493275         3.398361         2.879385
 H        -1.763558         1.521062         2.892319
 H        -0.046849         2.894423         0.671027
