19
Iteration:  3117
 O         0.345772        -0.186210         0.317856
 C        -0.745780         0.651562         0.058085
 C        -2.284790         0.450935         0.340967
 C        -2.092433         2.109535         0.373569
 C        -1.779000         2.511537        -1.051670
 C        -0.581359         1.471496        -1.338232
 O        -2.758975         2.841863         1.398335
 C        -1.739180         2.297526         2.222305
 C        -0.743271         1.936412         1.001197
 H         0.679428        -0.050193         1.231414
 H        -2.819323        -0.075842        -0.443181
 H        -2.559885         0.106211         1.363216
 H        -2.623300         2.402726        -1.804293
 H        -1.291314         3.471088        -1.016710
 H        -0.592882         0.763706        -2.192657
 H         0.426198         1.850405        -1.259122
 H        -1.451661         3.211867         2.769259
 H        -2.054389         1.565026         2.899599
 H        -0.092758         2.761297         0.849526
