19
Iteration:   539charge 0 multiplicity 1
 O         0.205462        -0.241516         0.490090
 C        -0.656308         0.757821         0.219374
 C        -2.190649         0.555437         0.463261
 C        -2.175456         2.052943         0.302262
 C        -1.922438         2.285738        -1.210938
 C        -0.663607         1.296731        -1.288745
 O        -2.700990         2.744268         1.436822
 C        -1.497160         2.446717         2.155804
 C        -0.785466         2.235355         0.774470
 H         0.911601         0.136630         1.058051
 H        -2.803539         0.030585        -0.321961
 H        -2.435384         0.222175         1.475135
 H        -2.774070         1.893171        -1.926247
 H        -1.810685         3.326055        -1.363863
 H        -0.567584         0.595948        -2.160353
 H         0.298984         1.879769        -1.379546
 H        -1.054738         3.349677         2.786932
 H        -1.583659         1.616550         2.883206
 H        -0.144520         2.978828         0.273622
