19
Iteration:  4991charge 0 multiplicity 1
 O         0.217670        -0.433965         0.355449
 C        -0.642895         0.706860         0.146530
 C        -2.052937         0.457540         0.214215
 C        -2.079765         2.189983         0.310348
 C        -1.746292         2.623605        -1.089469
 C        -0.509148         1.611287        -1.255336
 O        -2.938618         2.755598         1.320397
 C        -1.838540         2.228724         2.240115
 C        -0.771113         2.052899         1.138451
 H         1.060453        -0.198883         0.807659
 H        -2.550049        -0.079605        -0.573575
 H        -2.277104        -0.026998         1.203518
 H        -2.559873         2.358651        -1.786227
 H        -1.388424         3.671526        -1.038633
 H        -0.412572         0.872240        -2.126741
 H         0.479118         2.084495        -1.410928
 H        -1.529562         3.056601         2.982910
 H        -2.229383         1.455274         2.864876
 H         0.038269         2.849321         0.939284
