19
Iteration:  4681
 O         0.337207        -0.217924         0.253878
 C        -0.657546         0.756081         0.202324
 C        -2.289205         0.528005         0.270964
 C        -2.104485         2.129346         0.280681
 C        -1.646925         2.465250        -1.142948
 C        -0.522819         1.466378        -1.160940
 O        -2.896218         2.765924         1.338519
 C        -1.766111         2.341470         2.289536
 C        -0.780521         1.956439         1.171952
 H         0.597773        -0.565962        -0.643904
 H        -2.741368         0.148094        -0.702104
 H        -2.710464         0.270234         1.221689
 H        -2.520784         2.075442        -1.698392
 H        -1.469733         3.552572        -1.305201
 H        -0.850109         0.683305        -1.932318
 H         0.521083         1.729597        -1.344412
 H        -1.308204         3.098339         2.881045
 H        -2.048902         1.610073         3.107612
 H         0.103503         2.563756         1.139522
