19
Iteration:  1760charge 0 multiplicity 1
 O         0.344729        -0.300159         0.417735
 C        -0.628821         0.737567         0.277348
 C        -2.136148         0.527303         0.371476
 C        -2.149813         2.091373         0.278352
 C        -1.900042         2.351398        -1.198663
 C        -0.632175         1.379690        -1.274042
 O        -2.739276         2.963657         1.401574
 C        -1.732374         2.358873         2.240151
 C        -0.809731         1.990796         0.990321
 H         0.790448        -0.230741        -0.428673
 H        -2.709194         0.043735        -0.460177
 H        -2.611662         0.186670         1.297039
 H        -2.652868         2.218795        -1.964682
 H        -1.306396         3.384986        -1.331193
 H        -0.800028         0.615942        -2.054430
 H         0.395700         1.884732        -1.396027
 H        -1.248937         3.298639         2.703026
 H        -2.131189         1.558186         2.820918
 H        -0.124362         2.825503         0.636359
