19
Iteration:  3481
 O         0.246610        -0.337683         0.412973
 C        -0.581080         0.762326         0.143276
 C        -2.193367         0.551684         0.243730
 C        -2.125605         2.174393         0.325510
 C        -1.749056         2.580181        -1.129778
 C        -0.586881         1.432228        -1.258534
 O        -2.829015         2.777978         1.375330
 C        -1.722282         2.153820         2.270383
 C        -0.806683         2.073105         1.036363
 H         1.169354        -0.032846         0.395890
 H        -2.577213         0.086912        -0.619699
 H        -2.534835         0.087859         1.188519
 H        -2.417533         2.312552        -1.937263
 H        -1.547933         3.724678        -1.097828
 H        -1.017243         0.884230        -2.003373
 H         0.377249         1.866071        -1.633784
 H        -1.530930         2.878668         3.014738
 H        -1.939441         1.196497         2.750089
 H        -0.069010         2.860368         0.900417
