19
Iteration:  1708
 O         0.313590        -0.346453         0.416469
 C        -0.593070         0.792246         0.195935
 C        -2.149743         0.526621         0.394400
 C        -2.175153         2.090171         0.262523
 C        -1.883142         2.426213        -1.199839
 C        -0.648350         1.411481        -1.229255
 O        -2.817965         2.837338         1.320326
 C        -1.654494         2.432644         2.223311
 C        -0.747089         2.034520         1.069449
 H         0.567147        -0.683019        -0.454290
 H        -2.732633        -0.122712        -0.289448
 H        -2.253459         0.193948         1.403314
 H        -2.615780         2.218053        -1.942000
 H        -1.531564         3.475711        -1.314557
 H        -0.782878         0.611839        -1.932589
 H         0.348627         1.858306        -1.372925
 H        -1.194144         3.210469         2.914853
 H        -2.183294         1.702424         2.768129
 H         0.077638         2.761853         0.975122
