19
Iteration:  2671
 O         0.191238        -0.329648         0.414535
 C        -0.605596         0.755791         0.051197
 C        -2.076949         0.597896         0.367968
 C        -2.127918         2.095975         0.301545
 C        -1.955133         2.282385        -1.149821
 C        -0.619591         1.403738        -1.317367
 O        -2.799085         2.731944         1.478870
 C        -1.572315         2.457303         2.272270
 C        -0.717860         2.265323         0.974903
 H        -0.304946        -1.137886         0.214408
 H        -2.689588        -0.016641        -0.284784
 H        -2.225821         0.262850         1.405594
 H        -2.610350         1.886191        -1.888813
 H        -1.645110         3.253131        -1.488171
 H        -0.710245         0.718332        -2.215342
 H         0.266687         2.022162        -1.506263
 H        -1.163602         3.270328         2.866660
 H        -1.784314         1.609703         2.921903
 H         0.116025         3.042879         0.816344
