19
Iteration:  4499
 O         0.307698        -0.235522         0.322983
 C        -0.669796         0.737470         0.177601
 C        -2.267152         0.640450         0.248047
 C        -2.106625         2.140948         0.242875
 C        -1.770383         2.506000        -1.150824
 C        -0.563803         1.480152        -1.234255
 O        -2.760748         2.741476         1.402631
 C        -1.736172         2.227604         2.278771
 C        -0.789818         1.959658         1.055984
 H         0.504689        -0.435554         1.252512
 H        -2.696634         0.145818        -0.640182
 H        -2.668816         0.162217         1.139319
 H        -2.552772         2.028140        -1.834996
 H        -1.398538         3.450179        -1.400952
 H        -0.506958         0.594398        -1.965338
 H         0.296314         2.154220        -1.200567
 H        -1.331360         2.978615         3.060862
 H        -2.093610         1.346118         2.753181
 H        -0.039281         2.821085         0.940888
