19
Iteration:  4616charge 0 multiplicity 1
 O         0.212841        -0.195551         0.523010
 C        -0.649509         0.754936         0.140872
 C        -2.204414         0.608631         0.194050
 C        -2.088582         2.135428         0.259967
 C        -1.788987         2.504019        -1.150501
 C        -0.552503         1.479646        -1.243995
 O        -2.813917         2.677544         1.430862
 C        -1.660049         2.176766         2.228421
 C        -0.746237         2.092425         1.001459
 H         0.233077        -1.074178         0.128414
 H        -2.641874         0.080797        -0.737630
 H        -2.625561         0.124859         1.048455
 H        -2.653433         2.188350        -1.830123
 H        -1.426391         3.583010        -1.147972
 H        -0.562280         0.753218        -2.128888
 H         0.230031         2.201682        -1.372015
 H        -1.353487         3.034617         2.874452
 H        -2.008449         1.250699         2.869078
 H         0.127391         2.772706         1.017089
