19
Iteration:  4590charge 0 multiplicity 1
 O         0.285058        -0.296043         0.429477
 C        -0.661330         0.793238         0.160356
 C        -2.189095         0.621349         0.150801
 C        -2.194506         2.149311         0.268663
 C        -1.798741         2.527943        -1.288097
 C        -0.493176         1.489260        -1.174558
 O        -2.794599         2.632630         1.483094
 C        -1.639965         2.315294         2.311383
 C        -0.844888         2.065609         1.030584
 H        -0.088137        -1.184099         0.318493
 H        -2.595073         0.229641        -0.795728
 H        -2.521571        -0.019872         1.039763
 H        -2.546827         2.013075        -1.824568
 H        -1.565038         3.581955        -1.472634
 H        -0.521565         0.736801        -1.930023
 H         0.491963         2.147042        -1.254288
 H        -1.299962         3.110735         2.947979
 H        -1.987471         1.479250         2.996630
 H         0.065737         2.625104         1.006928
