19
Iteration:    80charge 0 multiplicity 1
 O         0.402231        -0.195009         0.317373
 C        -0.649436         0.772908         0.252238
 C        -2.091626         0.470263         0.467989
 C        -2.161131         2.088226         0.299380
 C        -1.899824         2.363151        -1.188188
 C        -0.713386         1.355172        -1.268951
 O        -2.753468         2.857699         1.292024
 C        -1.689277         2.394591         2.234560
 C        -0.775956         2.092050         0.981374
 H         0.140286        -0.907709         0.908823
 H        -2.543991        -0.204070        -0.289622
 H        -2.350631         0.040733         1.474919
 H        -2.735501         2.117187        -1.820455
 H        -1.643182         3.429361        -1.327224
 H        -0.956892         0.558933        -1.926197
 H         0.312816         1.789320        -1.577367
 H        -1.365492         3.256555         2.820490
 H        -2.039603         1.597168         2.934510
 H        -0.004680         2.937794         0.842625
