19
Iteration:  3730
 O         0.291207        -0.383529         0.305725
 C        -0.684518         0.692397         0.191628
 C        -2.123059         0.537652         0.310409
 C        -2.117708         2.137919         0.315186
 C        -1.748252         2.581596        -1.117824
 C        -0.589971         1.484592        -1.185947
 O        -2.865721         2.744388         1.310623
 C        -1.760604         2.296853         2.297334
 C        -0.778760         2.062049         1.053060
 H         0.898572        -0.054648        -0.387857
 H        -2.663393        -0.114969        -0.485173
 H        -2.614822         0.213461         1.283853
 H        -2.511158         2.533893        -1.826132
 H        -1.228253         3.583563        -1.010060
 H        -0.622430         0.904841        -2.077972
 H         0.397957         2.047250        -1.133367
 H        -1.442764         3.167009         2.828435
 H        -2.034396         1.341956         2.822227
 H         0.059708         2.725168         0.898030
