19
Iteration:    43charge 0 multiplicity 1
 O         0.311059        -0.358008         0.301506
 C        -0.652930         0.717148         0.139340
 C        -2.163462         0.522984         0.333419
 C        -2.155943         2.063307         0.388642
 C        -1.870090         2.352649        -1.044065
 C        -0.546559         1.431164        -1.244702
 O        -2.880455         2.591062         1.395332
 C        -1.621480         2.719125         2.170943
 C        -0.773903         2.115122         0.952892
 H         0.581218        -0.356638         1.223863
 H        -2.723843         0.080711        -0.487571
 H        -2.341668        -0.082381         1.209324
 H        -2.580806         2.023138        -1.841050
 H        -1.596631         3.402089        -1.154900
 H        -0.659592         0.721019        -2.128167
 H         0.385213         1.873357        -1.283506
 H        -1.406952         3.836435         2.286179
 H        -1.572263         2.542300         3.237530
 H        -0.147372         2.805680         0.567161
