19
Iteration:   806charge 0 multiplicity 1
 O         0.368813        -0.114773         0.643815
 C        -0.670702         0.740982         0.190959
 C        -2.224593         0.592102         0.396778
 C        -2.080644         2.091266         0.281920
 C        -1.935268         2.300305        -1.238075
 C        -0.687946         1.404114        -1.386734
 O        -2.759786         2.772195         1.355122
 C        -1.640884         2.340183         2.190761
 C        -0.663575         2.032356         0.970254
 H         0.470766        -0.818869        -0.058438
 H        -2.886963         0.211596        -0.461898
 H        -2.655326         0.422310         1.396521
 H        -2.736704         1.907150        -1.790867
 H        -1.739218         3.383251        -1.560622
 H        -1.106145         0.720662        -2.091982
 H         0.243329         1.792520        -1.637189
 H        -1.245491         3.113681         2.791511
 H        -1.722657         1.501669         3.011150
 H        -0.095536         2.882625         0.698200
