19
Iteration:  3906charge 0 multiplicity 1
 O         0.342962        -0.245198         0.433907
 C        -0.666838         0.676769         0.164979
 C        -2.238871         0.551031         0.185486
 C        -2.140536         2.105424         0.311852
 C        -1.830712         2.489358        -1.079253
 C        -0.580973         1.473619        -1.199626
 O        -2.787807         2.858819         1.379980
 C        -1.699402         2.249471         2.250518
 C        -0.735074         2.004495         1.089358
 H         0.836301        -0.507476        -0.368232
 H        -2.467402         0.213287        -0.900924
 H        -2.880182        -0.036720         0.863778
 H        -2.647219         2.277547        -1.764095
 H        -1.489557         3.630106        -1.416454
 H        -0.679946         0.801343        -2.004277
 H         0.347114         1.983592        -1.449906
 H        -1.685128         2.892127         3.112502
 H        -2.070470         1.279453         2.635400
 H        -0.015882         2.696411         0.743206
