19
Iteration:  4234charge 0 multiplicity 1
 O         0.300841        -0.362106         0.260661
 C        -0.590341         0.808118         0.207339
 C        -2.175607         0.601993         0.273122
 C        -2.179082         2.118887         0.290227
 C        -1.738836         2.487958        -1.108637
 C        -0.593286         1.478349        -1.200592
 O        -2.858693         2.785591         1.358651
 C        -1.724809         2.311112         2.246121
 C        -0.707627         2.039351         1.084146
 H        -0.055043        -1.143348         0.724147
 H        -2.620931         0.169533        -0.611910
 H        -2.503146        -0.052357         1.137379
 H        -2.566151         2.303146        -1.768188
 H        -1.591820         3.537760        -1.118285
 H        -0.584919         0.686375        -1.999109
 H         0.457772         1.940085        -1.330759
 H        -1.523010         2.986076         3.054763
 H        -2.032629         1.385758         2.828248
 H        -0.117165         2.912308         0.808083
