19
Iteration:  4052
 O         0.244528        -0.288497         0.404371
 C        -0.571358         0.764900         0.136565
 C        -2.098126         0.558057         0.169288
 C        -2.103959         2.092189         0.262539
 C        -1.802636         2.593369        -1.080803
 C        -0.621332         1.490635        -1.250886
 O        -2.832736         2.753793         1.352629
 C        -1.718753         2.236339         2.301029
 C        -0.797037         1.998883         1.032070
 H         0.250067        -0.538557         1.348630
 H        -2.596694         0.049958        -0.647536
 H        -2.457689        -0.030383         1.051007
 H        -2.657996         2.384327        -1.849818
 H        -1.442438         3.596476        -1.193174
 H        -0.900580         0.741918        -1.996263
 H         0.256551         1.985644        -1.487949
 H        -1.169617         3.059326         2.924107
 H        -1.908168         1.389993         2.896019
 H         0.014442         2.750394         1.138228
