19
Iteration:  1545charge 0 multiplicity 1
 O         0.231423        -0.279470         0.524327
 C        -0.680129         0.780246         0.195047
 C        -2.151579         0.479016         0.325771
 C        -2.219327         2.039251         0.293475
 C        -1.794229         2.516959        -1.187180
 C        -0.611547         1.393657        -1.314409
 O        -2.736070         2.685351         1.381176
 C        -1.623546         2.456337         2.288962
 C        -0.775247         2.127936         0.939871
 H         0.637499        -0.628280        -0.293438
 H        -2.614377        -0.177552        -0.375941
 H        -2.265608        -0.041014         1.308015
 H        -2.375295         2.312021        -2.148004
 H        -1.614034         3.648070        -1.206385
 H        -0.908468         0.619618        -2.013310
 H         0.489346         1.650160        -1.531640
 H        -1.504979         3.520189         2.800215
 H        -1.939999         1.783719         3.126363
 H        -0.145723         2.941861         0.496940
