19
Iteration:  1258
 O         0.295475        -0.299181         0.399606
 C        -0.634818         0.767066         0.243669
 C        -2.172445         0.527236         0.264333
 C        -2.129348         2.107044         0.256535
 C        -1.849586         2.404155        -1.178345
 C        -0.606345         1.411198        -1.241897
 O        -2.777742         2.815205         1.386721
 C        -1.704719         2.332798         2.229746
 C        -0.771858         2.056760         1.021215
 H         1.021876        -0.013909         0.967304
 H        -2.844256         0.236202        -0.582484
 H        -2.462780         0.136996         1.264723
 H        -2.603135         2.019205        -1.875123
 H        -1.650895         3.443839        -1.495838
 H        -0.925275         0.602364        -1.918136
 H         0.247907         2.016202        -1.625533
 H        -1.382208         3.242765         2.846273
 H        -1.838685         1.547316         2.931430
 H         0.001619         2.879493         0.901807
