19
Iteration:  2028
 O         0.292015        -0.337696         0.282365
 C        -0.589518         0.752732         0.177888
 C        -2.114862         0.454229         0.318889
 C        -2.174191         2.085481         0.306025
 C        -1.871943         2.423106        -1.071221
 C        -0.695873         1.355010        -1.211347
 O        -2.792715         2.875438         1.331458
 C        -1.615481         2.502769         2.242894
 C        -0.769547         2.019325         1.039144
 H         0.472232        -0.467401         1.235720
 H        -2.567922        -0.010989        -0.643396
 H        -2.675942         0.350028         1.276322
 H        -2.601476         2.089517        -1.822166
 H        -1.404101         3.438011        -1.259745
 H        -0.852972         0.484258        -1.856029
 H         0.189263         1.967475        -1.540424
 H        -1.169366         3.443622         2.629779
 H        -1.885676         1.777495         3.026755
 H        -0.096580         2.855844         0.638963
