19
Iteration:   689
 O         0.366993        -0.153041         0.508522
 C        -0.621696         0.761775         0.218072
 C        -2.141113         0.450983         0.392256
 C        -2.214136         2.145549         0.292903
 C        -1.885330         2.270069        -1.220040
 C        -0.670304         1.296997        -1.376356
 O        -2.750977         2.925296         1.464838
 C        -1.561720         2.389802         2.173124
 C        -0.830649         2.133674         0.888626
 H        -0.071704        -0.974244         0.821221
 H        -2.674703        -0.143985        -0.329256
 H        -2.349202         0.003874         1.345372
 H        -2.773075         1.930191        -1.840413
 H        -1.664234         3.294940        -1.475346
 H        -0.979345         0.416473        -2.019395
 H         0.318521         1.761901        -1.564632
 H        -1.225813         3.149453         2.891065
 H        -1.814449         1.545056         2.744296
 H        -0.096645         2.935254         0.573678
