19
Iteration:  2342charge 0 multiplicity 1
 O         0.307295        -0.239061         0.496781
 C        -0.640840         0.706534         0.214984
 C        -2.239325         0.536856         0.377799
 C        -2.122805         2.125931         0.312159
 C        -1.928000         2.449986        -1.180886
 C        -0.745782         1.412120        -1.306704
 O        -2.736952         2.833182         1.324081
 C        -1.565746         2.310191         2.195985
 C        -0.746062         1.987921         0.989353
 H         1.063108        -0.146750        -0.127097
 H        -2.775050        -0.003383        -0.378881
 H        -2.470898         0.206198         1.392132
 H        -2.796561         2.254749        -1.809621
 H        -1.593725         3.503290        -1.294214
 H        -0.773307         0.597215        -1.998739
 H         0.262628         1.918391        -1.367872
 H        -1.049272         3.188991         2.696771
 H        -1.725778         1.434860         2.774679
 H         0.011193         2.831452         0.890481
