19
Iteration:  3253charge 0 multiplicity 1
 O         0.395976        -0.286609         0.247144
 C        -0.626855         0.735780         0.141751
 C        -2.210867         0.534303         0.316549
 C        -2.077236         2.212132         0.271169
 C        -1.729106         2.558716        -1.159191
 C        -0.652512         1.381660        -1.288870
 O        -2.880474         2.825155         1.405919
 C        -1.761528         2.203572         2.300602
 C        -0.784721         2.037570         1.098052
 H         0.107071        -0.701362         1.073677
 H        -2.775344         0.004662        -0.456252
 H        -2.483755         0.348394         1.428490
 H        -2.483689         2.390310        -1.895649
 H        -1.224782         3.580404        -1.182197
 H        -0.754418         0.622701        -2.036682
 H         0.376199         1.826316        -1.451732
 H        -1.440434         2.861259         3.091661
 H        -2.106096         1.339977         2.930638
 H         0.071509         2.795434         1.017240
