19
Iteration:  2686
 O         0.264528        -0.288462         0.441204
 C        -0.641466         0.755593         0.136390
 C        -2.123388         0.566549         0.444547
 C        -2.054630         2.151908         0.333938
 C        -1.972968         2.398261        -1.259412
 C        -0.634850         1.433960        -1.365322
 O        -2.756217         2.726757         1.412186
 C        -1.612290         2.425810         2.252548
 C        -0.701233         2.037242         0.951921
 H        -0.253820        -1.119091         0.523113
 H        -2.761374         0.156822        -0.321257
 H        -2.119078         0.339927         1.546198
 H        -3.010414         2.063253        -1.549758
 H        -1.899142         3.503837        -1.467089
 H        -0.703842         0.583661        -2.080852
 H         0.223650         2.072822        -1.519588
 H        -1.447248         3.335365         2.812098
 H        -1.680196         1.561822         2.983559
 H        -0.163575         2.902782         0.622795
