19
Iteration:   851
 O         0.383183        -0.254962         0.277585
 C        -0.590270         0.757526         0.244234
 C        -2.156026         0.456841         0.452238
 C        -2.184791         1.980616         0.330379
 C        -1.762131         2.414329        -1.183563
 C        -0.681228         1.339095        -1.231730
 O        -2.808668         2.882925         1.325557
 C        -1.658870         2.480541         2.216626
 C        -0.838553         2.150974         0.961062
 H         0.424219        -0.787025         1.105543
 H        -2.581229        -0.051759        -0.446330
 H        -2.383805        -0.046053         1.416492
 H        -2.541838         2.105513        -1.891491
 H        -1.660113         3.496358        -1.179399
 H        -1.108677         0.522471        -1.847765
 H         0.230655         1.670807        -1.608951
 H        -1.464267         3.164904         3.056544
 H        -2.009100         1.557875         2.785376
 H        -0.210221         3.014324         0.620544
