19
Iteration:  3231charge 0 multiplicity 1
 O         0.352352        -0.149150         0.434943
 C        -0.600591         0.733261         0.143353
 C        -2.209062         0.502573         0.175284
 C        -2.147196         2.084227         0.346764
 C        -1.796058         2.558887        -1.093387
 C        -0.652821         1.457543        -1.319213
 O        -2.710852         2.807163         1.375867
 C        -1.714765         2.321062         2.270766
 C        -0.838278         1.875086         1.067905
 H        -0.042515        -1.039253         0.566850
 H        -2.588430         0.256499        -0.823767
 H        -2.689307        -0.084157         1.027457
 H        -2.542946         2.378791        -1.818638
 H        -1.441744         3.623505        -1.021477
 H        -0.967639         0.699609        -2.018830
 H         0.374124         1.767161        -1.632689
 H        -1.294852         3.000322         2.989295
 H        -2.118086         1.468021         2.876441
 H        -0.020740         2.663382         0.926234
