19
Iteration:  2721
 O         0.421395        -0.144981         0.300990
 C        -0.686365         0.717008         0.217026
 C        -2.231011         0.475821         0.351498
 C        -2.141239         2.042213         0.328532
 C        -1.882783         2.475447        -1.072291
 C        -0.729194         1.243875        -1.235563
 O        -2.703007         2.904154         1.372387
 C        -1.622973         2.445370         2.231398
 C        -0.783331         2.019928         0.951778
 H         0.164914        -0.955485         0.791726
 H        -2.852185         0.030529        -0.493434
 H        -2.556838        -0.104462         1.159867
 H        -2.698448         2.309591        -1.836917
 H        -1.420277         3.440343        -1.343222
 H        -0.834456         0.406273        -1.854726
 H         0.240662         1.747691        -1.552179
 H        -1.201962         3.280571         2.876930
 H        -1.809053         1.531000         2.815578
 H        -0.177360         2.788326         0.533082
