19
Iteration:  2658charge 0 multiplicity 1
 O         0.235115        -0.348287         0.352941
 C        -0.613025         0.838123         0.222913
 C        -2.100969         0.496534         0.415721
 C        -2.174100         2.121009         0.355147
 C        -1.856806         2.350317        -1.235013
 C        -0.638167         1.406952        -1.267494
 O        -2.843590         2.786528         1.456984
 C        -1.493057         2.448019         2.225137
 C        -0.755874         2.153153         0.938371
 H        -0.326832        -1.051022        -0.039682
 H        -2.621544         0.015979        -0.504248
 H        -2.347149        -0.055481         1.297155
 H        -2.758790         1.927120        -1.677301
 H        -1.856999         3.384194        -1.527128
 H        -0.747535         0.586694        -1.955711
 H         0.323020         1.993187        -1.534497
 H        -1.361507         3.433169         2.761327
 H        -1.479462         1.602428         2.887910
 H        -0.081242         3.032132         0.622690
