19
Iteration:  4932charge 0 multiplicity 1
 O         0.302470        -0.344676         0.296647
 C        -0.619787         0.712387         0.202501
 C        -2.167450         0.546677         0.170464
 C        -2.163144         2.107667         0.247110
 C        -1.688232         2.495972        -1.144151
 C        -0.468269         1.519961        -1.136660
 O        -2.875253         2.784863         1.428859
 C        -1.817866         2.284292         2.322007
 C        -0.873983         2.045931         1.087259
 H         1.030421        -0.104900        -0.284469
 H        -2.648662         0.039222        -0.732644
 H        -2.613036         0.109852         1.113811
 H        -2.315467         2.489095        -2.054329
 H        -1.338942         3.549253        -1.138586
 H        -0.498564         0.670488        -1.852144
 H         0.456697         2.071639        -1.119921
 H        -1.483377         3.061227         2.984805
 H        -2.237572         1.371366         2.829621
 H        -0.189292         2.786429         0.807303
