19
Iteration:  3051charge 0 multiplicity 1
 O         0.268508        -0.300299         0.405306
 C        -0.619915         0.761231         0.098084
 C        -2.115514         0.566130         0.394977
 C        -2.163807         2.112408         0.326655
 C        -1.861567         2.447100        -1.121296
 C        -0.577315         1.538375        -1.288109
 O        -2.821798         2.766322         1.325312
 C        -1.660630         2.266174         2.265516
 C        -0.698141         2.022292         1.038642
 H        -0.170425        -1.098129         0.079957
 H        -2.668339         0.012524        -0.326719
 H        -2.436573         0.136236         1.466992
 H        -2.789653         2.227945        -1.778240
 H        -1.458928         3.426986        -1.045685
 H        -0.693327         0.919671        -2.208750
 H         0.197873         2.292359        -1.460158
 H        -1.263191         3.265528         2.494711
 H        -1.887314         1.567903         3.019954
 H        -0.190872         2.872704         0.636089
