19
Iteration:  2189charge 0 multiplicity 1
 O         0.213541        -0.289405         0.461599
 C        -0.604358         0.758944         0.102410
 C        -2.104737         0.506893         0.355895
 C        -2.093354         2.098152         0.281222
 C        -1.888190         2.428970        -1.154120
 C        -0.663167         1.369170        -1.325498
 O        -2.778102         2.714863         1.390901
 C        -1.623112         2.445478         2.308166
 C        -0.717234         2.154217         0.896278
 H        -0.161821        -0.708795         1.239923
 H        -2.655036         0.058664        -0.519838
 H        -2.524414        -0.025271         1.240223
 H        -2.821259         2.249585        -1.745510
 H        -1.476638         3.443773        -1.344921
 H        -0.897337         0.647647        -2.103942
 H         0.244240         1.954759        -1.666854
 H        -1.349003         3.411629         2.984060
 H        -1.546646         1.637507         3.109519
 H        -0.026552         3.024830         0.731215
