19
Iteration:   364
 O         0.412681        -0.096274         0.497123
 C        -0.651114         0.700397         0.157633
 C        -2.193796         0.612860         0.419617
 C        -2.109853         2.136692         0.318257
 C        -1.954057         2.291501        -1.246672
 C        -0.818654         1.135846        -1.329719
 O        -2.833440         2.842765         1.381125
 C        -1.530868         2.490035         2.322379
 C        -0.648056         2.043457         0.934808
 H         0.748979        -0.579551        -0.297764
 H        -2.631027         0.068501        -0.537783
 H        -2.521225         0.210460         1.398884
 H        -2.896088         1.946622        -1.833071
 H        -1.587655         3.278108        -1.478360
 H        -1.207571         0.230252        -1.775169
 H         0.048836         1.619434        -1.835966
 H        -1.155557         3.444630         2.830370
 H        -1.855204         1.705509         2.989012
 H         0.088560         2.857473         0.721013
