19
Iteration:  4192
 O         0.335705        -0.288968         0.428834
 C        -0.680365         0.693855         0.145650
 C        -2.228653         0.603458         0.179533
 C        -2.147915         2.089423         0.307069
 C        -1.733008         2.600970        -1.144431
 C        -0.540237         1.505242        -1.298827
 O        -2.862826         2.692047         1.473391
 C        -1.663125         2.307508         2.214635
 C        -0.813541         1.990814         1.025594
 H         0.073083        -0.573959         1.332165
 H        -2.613982         0.032322        -0.658723
 H        -2.698060         0.040643         1.056149
 H        -2.496743         2.584553        -1.985652
 H        -1.219831         3.512755        -1.116945
 H        -0.867818         0.812789        -2.110562
 H         0.420737         1.979609        -1.555202
 H        -1.218182         3.158667         2.844475
 H        -1.855488         1.455129         2.908532
 H         0.010382         2.696166         0.838949
