19
Iteration:  1275
 O         0.183342        -0.341660         0.475663
 C        -0.635495         0.751107         0.169810
 C        -2.112673         0.414966         0.228225
 C        -2.118545         2.068179         0.293922
 C        -1.908524         2.434680        -1.183013
 C        -0.634029         1.502642        -1.276472
 O        -2.787529         2.752799         1.344253
 C        -1.638549         2.513071         2.299454
 C        -0.712494         2.065837         1.046017
 H         1.091394        -0.002598         0.497274
 H        -2.233849        -0.060887        -0.738681
 H        -2.503570         0.016682         1.167911
 H        -2.760766         2.218950        -1.897539
 H        -1.606220         3.469369        -1.228385
 H        -0.600027         0.685916        -2.043309
 H         0.346667         1.986342        -1.243865
 H        -1.416651         3.327945         2.956630
 H        -2.079897         1.603053         2.879651
 H        -0.034229         2.811987         0.737835
