19
Iteration:  2359charge 0 multiplicity 1
 O         0.283951        -0.289040         0.378386
 C        -0.665957         0.723629         0.113215
 C        -2.109143         0.524341         0.450134
 C        -2.118274         2.085687         0.320957
 C        -1.846570         2.389429        -1.112980
 C        -0.706171         1.347993        -1.339912
 O        -2.764074         2.901866         1.356242
 C        -1.693748         2.368372         2.317307
 C        -0.727732         2.058893         0.962748
 H         1.133077         0.111480         0.075212
 H        -2.764272        -0.076795        -0.229463
 H        -2.448803         0.150391         1.454296
 H        -2.726373         2.342820        -1.813789
 H        -1.381424         3.372793        -1.209848
 H        -0.936326         0.651620        -2.202559
 H         0.180035         1.809893        -1.757379
 H        -1.369628         3.162953         2.921901
 H        -2.228180         1.568510         2.929906
 H         0.053890         2.766114         0.681971
