19
Iteration:  2841charge 0 multiplicity 1
 O         0.400425        -0.167461         0.377138
 C        -0.682261         0.714538         0.281718
 C        -2.262866         0.593818         0.335018
 C        -2.097206         2.090985         0.336027
 C        -1.847557         2.455228        -1.124814
 C        -0.713653         1.313320        -1.250914
 O        -2.729336         2.787600         1.358025
 C        -1.704491         2.313453         2.218001
 C        -0.700133         2.091170         0.937622
 H         0.174391        -1.024560        -0.016447
 H        -2.856914        -0.013554        -0.433930
 H        -2.603886         0.206718         1.252449
 H        -2.781190         2.392502        -1.811301
 H        -1.327577         3.439395        -1.247776
 H        -0.910316         0.556604        -1.960162
 H         0.315256         1.780452        -1.473824
 H        -1.451854         3.301823         2.702669
 H        -1.863580         1.472601         2.871986
 H         0.092472         2.747952         0.705589
