19
Iteration:  4630charge 0 multiplicity 1
 O         0.272240        -0.237128         0.579065
 C        -0.654536         0.779163         0.108924
 C        -2.122831         0.532457         0.268995
 C        -2.163133         2.138859         0.286400
 C        -1.811614         2.601722        -1.141866
 C        -0.576229         1.517211        -1.300307
 O        -2.786487         2.742699         1.361065
 C        -1.727499         2.197333         2.220854
 C        -0.780291         1.926152         1.016590
 H         0.249692        -0.742381        -0.270208
 H        -2.701914         0.115998        -0.508776
 H        -2.201738         0.166020         1.304017
 H        -2.578207         2.588746        -1.980286
 H        -1.359375         3.578583        -1.184474
 H        -0.806468         0.769052        -2.096296
 H         0.436915         1.786871        -1.375493
 H        -1.347109         2.878884         3.071408
 H        -1.972471         1.298350         2.786789
 H        -0.040584         2.803873         0.842967
