19
Iteration:  2404charge 0 multiplicity 1
 O         0.265320        -0.360446         0.250683
 C        -0.691477         0.733353         0.136455
 C        -2.185642         0.586286         0.448235
 C        -2.104787         2.089729         0.321331
 C        -1.889349         2.386867        -1.141692
 C        -0.647786         1.403680        -1.242677
 O        -2.801564         2.737382         1.406303
 C        -1.639209         2.528193         2.201374
 C        -0.650155         2.050533         0.993110
 H         0.920802        -0.294853         0.976815
 H        -2.826653         0.114992        -0.314916
 H        -2.362925         0.081944         1.427159
 H        -2.679206         2.056233        -1.853537
 H        -1.729856         3.438994        -1.334210
 H        -0.577187         0.750952        -2.130702
 H         0.287873         1.989050        -1.235262
 H        -1.519573         3.473231         2.695428
 H        -1.881607         1.797312         2.997614
 H         0.065834         2.856297         0.798686
