19
Iteration:  4379charge 0 multiplicity 1
 O         0.256421        -0.353621         0.299322
 C        -0.603188         0.730953         0.133044
 C        -2.121538         0.449283         0.239189
 C        -2.095218         2.086907         0.318988
 C        -1.833620         2.544477        -1.108937
 C        -0.572381         1.500989        -1.200680
 O        -2.728999         2.929855         1.340599
 C        -1.812768         2.267233         2.301130
 C        -0.822028         1.973772         1.041948
 H         0.513585        -0.182471         1.216156
 H        -2.512147        -0.095119        -0.672006
 H        -2.450017        -0.052011         1.124895
 H        -2.535542         2.178903        -1.893237
 H        -1.656700         3.544838        -0.995851
 H        -0.739276         0.864125        -2.163785
 H         0.219597         2.245784        -1.378955
 H        -1.256699         2.995672         3.040940
 H        -2.266411         1.499638         2.890312
 H        -0.005863         2.782687         1.027653
