19
Iteration:  4029
 O         0.281462        -0.249674         0.289576
 C        -0.674600         0.729879         0.172514
 C        -2.170157         0.443429         0.254774
 C        -2.127866         2.130131         0.302349
 C        -1.802640         2.557964        -1.162946
 C        -0.528048         1.447806        -1.235363
 O        -2.756897         2.858012         1.412389
 C        -1.792911         2.178925         2.257935
 C        -0.771680         2.069931         1.074577
 H         0.657163         0.002156         1.147946
 H        -2.669688        -0.116485        -0.537129
 H        -2.681884        -0.095013         1.120105
 H        -2.572764         2.361755        -2.014400
 H        -1.470279         3.610610        -1.227529
 H        -0.691686         0.704646        -1.985921
 H         0.403676         1.882308        -1.290065
 H        -1.502404         2.849269         3.168684
 H        -2.088228         1.197056         2.512466
 H         0.057302         2.823100         1.042125
