19
Iteration:  1601
 O         0.327827        -0.224885         0.357232
 C        -0.647656         0.710091         0.220221
 C        -2.138852         0.481983         0.381498
 C        -2.069338         2.118478         0.305878
 C        -1.864988         2.354133        -1.204461
 C        -0.667882         1.393140        -1.253205
 O        -2.747484         2.915160         1.319950
 C        -1.757069         2.419776         2.266893
 C        -0.776299         2.008524         1.080070
 H         0.452132        -0.780974        -0.415702
 H        -2.678595        -0.154793        -0.321400
 H        -2.277166         0.150803         1.383463
 H        -2.839662         2.150241        -1.772550
 H        -1.488195         3.314035        -1.409664
 H        -0.456489         0.562097        -1.948084
 H         0.182685         2.067474        -1.272900
 H        -1.571801         3.265184         2.905891
 H        -2.118073         1.470982         2.797733
 H        -0.003358         2.730994         0.797402
