19
Iteration:  1136
 O         0.306855        -0.303257         0.297882
 C        -0.582725         0.740686         0.245181
 C        -2.148294         0.561307         0.312524
 C        -2.091389         2.117962         0.305276
 C        -1.853226         2.347479        -1.174099
 C        -0.556382         1.409344        -1.247478
 O        -2.835871         2.806024         1.402255
 C        -1.767992         2.366356         2.252517
 C        -0.724733         2.151146         0.973895
 H         0.265270        -0.676095         1.193021
 H        -2.672765        -0.041369        -0.477738
 H        -2.616697         0.378943         1.306062
 H        -2.718918         1.896696        -1.743432
 H        -1.749134         3.369568        -1.484411
 H        -0.687105         0.578436        -2.069959
 H         0.392079         1.915619        -1.382866
 H        -1.533877         3.268778         2.933942
 H        -1.944635         1.504876         2.861093
 H        -0.148391         3.076569         0.782193
