19
Iteration:   160charge 0 multiplicity 1
 O         0.226676        -0.344224         0.493198
 C        -0.580123         0.755723         0.131703
 C        -2.121171         0.513335         0.539477
 C        -2.127419         1.966956         0.329788
 C        -1.914626         2.415906        -1.117723
 C        -0.648968         1.448990        -1.276501
 O        -2.865568         2.689285         1.371455
 C        -1.627595         2.575669         2.093053
 C        -0.661094         2.100112         0.849623
 H         1.031117        -0.481654        -0.030969
 H        -2.876636         0.045792        -0.164612
 H        -2.169258         0.347241         1.597462
 H        -2.767600         2.253268        -1.887485
 H        -1.708340         3.471698        -1.048406
 H        -0.888502         0.793994        -2.241294
 H         0.323532         1.941311        -1.361810
 H        -1.344032         3.598458         2.531218
 H        -1.648494         1.767765         2.907500
 H        -0.143131         3.055459         0.415700
