19
Iteration:  3215charge 0 multiplicity 1
 O         0.350741        -0.243181         0.488208
 C        -0.724548         0.735527         0.149977
 C        -2.257589         0.462403         0.117472
 C        -2.124699         2.078886         0.315971
 C        -1.813614         2.557602        -1.070952
 C        -0.600496         1.488939        -1.198128
 O        -2.777501         2.796263         1.336222
 C        -1.602221         2.251567         2.303815
 C        -0.759227         2.054683         0.995550
 H         0.236958        -1.132322         0.051112
 H        -2.785192        -0.036574        -0.728271
 H        -2.575343         0.062339         1.054225
 H        -2.751693         2.389643        -1.770619
 H        -1.518274         3.634639        -1.111914
 H        -0.821595         0.859865        -2.109890
 H         0.352494         1.997591        -1.283038
 H        -1.236359         3.177449         2.799691
 H        -1.918172         1.413046         2.906771
 H        -0.141537         2.878320         0.781689
