19
Iteration:  4603charge 0 multiplicity 1
 O         0.286823        -0.246835         0.501598
 C        -0.704968         0.807499         0.204491
 C        -2.263824         0.587379         0.113137
 C        -2.084571         2.160675         0.299458
 C        -1.782872         2.437611        -1.209462
 C        -0.525031         1.550998        -1.248341
 O        -2.847107         2.642360         1.456424
 C        -1.615063         2.257769         2.289670
 C        -0.716779         2.060983         1.057731
 H        -0.225746        -0.989623         0.114025
 H        -2.696799         0.286024        -0.904043
 H        -2.877198         0.184577         0.946632
 H        -2.555992         2.107132        -1.916773
 H        -1.650750         3.482518        -1.678707
 H        -0.607096         0.833893        -2.080905
 H         0.569508         1.921694        -1.275193
 H        -1.379779         3.025601         2.980926
 H        -1.696465         1.204997         2.809627
 H        -0.174468         2.908054         0.748880
