19
Iteration:  4340
 O         0.181241        -0.226937         0.398419
 C        -0.648751         0.756258         0.071548
 C        -2.261901         0.664969         0.248729
 C        -2.120055         2.201271         0.273456
 C        -1.721201         2.504136        -1.140608
 C        -0.526395         1.403443        -1.246928
 O        -2.846970         2.616895         1.452085
 C        -1.654827         2.224520         2.297421
 C        -0.719636         2.023577         0.999084
 H         0.796167        -0.102827         1.146366
 H        -2.735554         0.288635        -0.656407
 H        -2.744047         0.238021         1.155341
 H        -2.554287         2.326641        -1.826486
 H        -1.159351         3.533810        -1.501254
 H        -0.790638         0.784081        -2.062502
 H         0.531624         1.761384        -1.237965
 H        -1.451446         3.115620         2.831929
 H        -1.943660         1.269847         2.836445
 H        -0.050567         2.847789         0.813107
