19
Iteration:  3241charge 0 multiplicity 1
 O         0.391072        -0.210128         0.366509
 C        -0.702124         0.741215         0.170059
 C        -2.164810         0.551640         0.212699
 C        -2.131435         2.101058         0.294128
 C        -1.756355         2.496704        -1.157937
 C        -0.655918         1.447343        -1.341559
 O        -2.795866         2.859276         1.446912
 C        -1.770689         2.247728         2.282940
 C        -0.748370         1.930713         1.100570
 H         0.154074        -1.029227         0.856030
 H        -2.665376         0.000177        -0.642929
 H        -2.505373        -0.003829         1.128932
 H        -2.587130         2.710338        -1.820194
 H        -1.195525         3.521452        -1.151383
 H        -0.952973         0.714764        -2.083002
 H         0.281209         1.958245        -1.638040
 H        -1.361554         3.081535         2.797529
 H        -2.184385         1.419157         2.855218
 H         0.073343         2.695477         1.091574
