19
Iteration:  3107charge 0 multiplicity 1
 O         0.372944        -0.195168         0.317357
 C        -0.702040         0.745300         0.125324
 C        -2.293670         0.554763         0.304048
 C        -2.180141         2.110395         0.311607
 C        -1.764237         2.499575        -1.082064
 C        -0.547544         1.397829        -1.249360
 O        -2.765612         2.777757         1.415770
 C        -1.659609         2.308432         2.235068
 C        -0.790809         1.942472         0.999201
 H         0.384088        -0.270157         1.298866
 H        -2.860070         0.147202        -0.554977
 H        -2.614134         0.085979         1.225815
 H        -2.584973         2.343319        -1.795249
 H        -1.506724         3.536441        -1.272922
 H        -0.860157         0.751849        -2.091683
 H         0.291257         1.935657        -1.553482
 H        -1.257577         2.981969         2.981525
 H        -1.944880         1.427738         2.758579
 H        -0.083520         2.679751         0.683664
