19
Iteration:  3399charge 0 multiplicity 1
 O         0.254161        -0.302809         0.314088
 C        -0.681357         0.762548         0.234445
 C        -2.184430         0.493134         0.235483
 C        -2.106537         2.058387         0.326213
 C        -1.736389         2.581440        -1.123521
 C        -0.591595         1.556602        -1.191477
 O        -2.760590         2.778841         1.299407
 C        -1.748027         2.310917         2.282856
 C        -0.796141         1.914728         1.116999
 H         1.052149         0.032123        -0.152820
 H        -2.720673        -0.151179        -0.574897
 H        -2.490446         0.011840         1.178431
 H        -2.549795         2.357640        -1.848177
 H        -1.533834         3.609636        -1.056456
 H        -0.818485         0.719975        -1.962563
 H         0.348374         1.973691        -1.520762
 H        -1.441678         3.202992         2.933477
 H        -2.114322         1.415437         2.856236
 H        -0.077248         2.721141         0.900442
