19
Iteration:  1578
 O         0.442565        -0.327724         0.397320
 C        -0.642991         0.659493         0.286597
 C        -2.262230         0.595868         0.314196
 C        -2.162703         2.126211         0.328963
 C        -1.865888         2.421556        -1.129340
 C        -0.597551         1.447709        -1.259332
 O        -2.846734         2.786134         1.320387
 C        -1.653513         2.482040         2.216648
 C        -0.752409         1.967199         1.043284
 H         0.640413        -0.522595        -0.557537
 H        -2.839764         0.120642        -0.466550
 H        -2.576018         0.279442         1.313871
 H        -2.588521         1.896963        -1.811762
 H        -1.806761         3.485820        -1.376899
 H        -0.813964         0.666403        -2.001260
 H         0.442442         1.820373        -1.418324
 H        -1.281401         3.521766         2.480615
 H        -2.013794         1.857086         3.080537
 H        -0.025869         2.781174         0.809092
