19
Iteration:   290
 O         0.325678        -0.289756         0.398194
 C        -0.649685         0.773584         0.217702
 C        -2.083092         0.492655         0.348286
 C        -2.140300         2.078098         0.257816
 C        -2.033620         2.310605        -1.236235
 C        -0.665507         1.325827        -1.273759
 O        -2.796559         2.734266         1.462570
 C        -1.527443         2.653835         2.278666
 C        -0.719871         2.142284         0.931655
 H        -0.167152        -1.116073         0.388566
 H        -2.579343        -0.275579        -0.343541
 H        -2.444043         0.170919         1.325535
 H        -2.797907         1.775836        -1.870066
 H        -1.794714         3.279832        -1.537643
 H        -0.829324         0.507203        -2.020455
 H         0.212343         1.936532        -1.396333
 H        -1.308669         3.728647         2.494984
 H        -1.594099         2.250225         3.292129
 H         0.095286         2.954858         0.747216
