19
Iteration:  1101
 O         0.418895        -0.113461         0.385165
 C        -0.713584         0.636551         0.198913
 C        -2.164949         0.398884         0.343847
 C        -2.110452         2.091967         0.332662
 C        -1.765949         2.495657        -1.124823
 C        -0.719414         1.349533        -1.298313
 O        -2.758088         2.902642         1.330796
 C        -1.801559         2.340053         2.172129
 C        -0.758641         1.983121         1.026880
 H         0.815885         0.015076         1.253470
 H        -2.699290        -0.208512        -0.446665
 H        -2.652711         0.256099         1.367003
 H        -2.657791         2.413771        -1.777132
 H        -1.324616         3.551243        -1.147917
 H        -1.036382         0.596921        -2.198396
 H         0.293489         1.651476        -1.589055
 H        -1.340597         3.110510         2.780122
 H        -2.269190         1.530641         2.743333
 H         0.135570         2.557181         0.878826
