19
Iteration:  3623
 O         0.310872        -0.201111         0.401049
 C        -0.658443         0.719129         0.112792
 C        -2.285978         0.568482         0.146393
 C        -2.164878         2.081914         0.316421
 C        -1.697221         2.515195        -1.137903
 C        -0.620692         1.446570        -1.292352
 O        -2.748239         2.774486         1.402585
 C        -1.762888         2.264552         2.325967
 C        -0.764341         1.904757         1.120543
 H         1.064742         0.342962         0.704185
 H        -2.656557         0.163640        -0.825645
 H        -2.628345        -0.041919         1.032335
 H        -2.431040         2.512717        -1.884816
 H        -1.356765         3.583882        -1.070395
 H        -0.932175         0.827084        -2.055947
 H         0.346632         1.981927        -1.684519
 H        -1.325872         2.962174         3.011945
 H        -2.217843         1.494126         2.998265
 H         0.005404         2.632561         0.954723
