19
Iteration:  3933
 O         0.247966        -0.245870         0.412571
 C        -0.646663         0.785906         0.101775
 C        -2.128352         0.607814         0.278788
 C        -2.080710         2.153380         0.239325
 C        -1.782776         2.525682        -1.183232
 C        -0.555884         1.491801        -1.222367
 O        -2.796384         2.669215         1.423015
 C        -1.760411         2.225765         2.276187
 C        -0.790807         2.000740         1.076370
 H         0.023980        -1.092162        -0.034928
 H        -2.687261         0.048630        -0.437476
 H        -2.491024         0.210299         1.232044
 H        -2.630138         2.408329        -1.927331
 H        -1.337501         3.438937        -1.328437
 H        -0.550671         0.789022        -2.130074
 H         0.311935         2.175876        -1.297223
 H        -1.511889         3.217844         2.818024
 H        -2.081509         1.487704         3.047565
 H         0.096457         2.694680         1.028874
