19
Iteration:  3476charge 0 multiplicity 1
 O         0.210303        -0.347346         0.392072
 C        -0.594190         0.763320         0.148553
 C        -2.158409         0.572511         0.245762
 C        -2.059322         2.182059         0.288875
 C        -1.780101         2.577765        -1.110662
 C        -0.600213         1.455900        -1.199655
 O        -2.854011         2.737137         1.358582
 C        -1.715370         2.167448         2.255299
 C        -0.765276         2.094509         1.068703
 H         1.106702         0.048673         0.435028
 H        -2.635950         0.069548        -0.711858
 H        -2.517262         0.049770         1.147777
 H        -2.429879         2.210544        -1.935275
 H        -1.527120         3.603687        -1.225027
 H        -1.115142         0.788008        -2.023254
 H         0.342726         1.822219        -1.618642
 H        -1.448176         2.959820         3.026578
 H        -1.943141         1.158000         2.671336
 H        -0.044353         2.934293         1.003100
