19
Iteration:  1476
 O         0.455385        -0.205263         0.384087
 C        -0.645189         0.710053         0.189943
 C        -2.185999         0.476637         0.375502
 C        -2.207646         2.107435         0.275165
 C        -1.852570         2.398699        -1.201289
 C        -0.628484         1.367077        -1.215054
 O        -2.760456         2.995670         1.362737
 C        -1.757203         2.350999         2.287845
 C        -0.808883         1.967713         0.996714
 H         0.200277        -1.029459        -0.041289
 H        -2.672961        -0.048688        -0.492104
 H        -2.471148        -0.168239         1.199004
 H        -2.694131         2.236766        -1.861451
 H        -1.420645         3.467889        -1.423230
 H        -0.612446         0.620362        -2.043890
 H         0.359891         1.944306        -1.251427
 H        -1.273055         3.243470         2.963929
 H        -2.083735         1.488248         2.833484
 H         0.003478         2.713087         0.805120
