19
Iteration:  3787charge 0 multiplicity 1
 O         0.300759        -0.348566         0.410197
 C        -0.692889         0.710530         0.207590
 C        -2.233632         0.508280         0.247933
 C        -2.176559         2.148428         0.303567
 C        -1.793756         2.556821        -1.164689
 C        -0.542681         1.545602        -1.196522
 O        -2.805366         2.807024         1.417379
 C        -1.698926         2.205742         2.152006
 C        -0.724186         1.998012         0.997050
 H         1.086923         0.178407         0.655929
 H        -2.656450         0.098030        -0.727038
 H        -2.610599         0.137320         1.194063
 H        -2.606399         2.349681        -1.770744
 H        -1.611605         3.642238        -1.232222
 H        -0.702790         0.886383        -1.978654
 H         0.386560         2.101714        -1.416289
 H        -1.470200         2.818351         3.037316
 H        -1.963500         1.234401         2.627967
 H        -0.010501         2.777481         0.945141
