19
Iteration:   494charge 0 multiplicity 1
 O         0.389491        -0.312455         0.385944
 C        -0.561393         0.745194         0.132712
 C        -2.207578         0.464037         0.409827
 C        -2.104747         2.082322         0.366588
 C        -1.940054         2.310464        -1.097392
 C        -0.782732         1.226155        -1.351970
 O        -2.780123         2.863522         1.327544
 C        -1.618972         2.613616         2.236005
 C        -0.735589         2.105225         0.953032
 H         0.771625        -0.003940         1.222516
 H        -2.659163        -0.053656        -0.449594
 H        -2.536206         0.147385         1.390553
 H        -2.977132         2.166009        -1.615743
 H        -1.459022         3.244447        -1.344967
 H        -1.004151         0.373715        -2.018143
 H         0.137019         1.736431        -1.815695
 H        -1.137089         3.588098         2.714079
 H        -1.818714         2.026571         3.153685
 H        -0.231088         3.035124         0.695871
