19
Iteration:   968charge 0 multiplicity 1
 O         0.474468        -0.103647         0.475739
 C        -0.666603         0.743971         0.178783
 C        -2.192192         0.539293         0.288587
 C        -2.069805         2.218796         0.283781
 C        -1.812758         2.424367        -1.153857
 C        -0.770541         1.224789        -1.208639
 O        -2.886162         2.821373         1.313737
 C        -1.691456         2.301143         2.225184
 C        -0.719363         2.028965         1.062678
 H         0.601405        -0.592861        -0.343313
 H        -2.712214        -0.007589        -0.540065
 H        -2.609228         0.142545         1.230908
 H        -2.679073         2.167323        -1.697458
 H        -1.426960         3.499203        -1.314340
 H        -1.173859         0.459429        -1.892448
 H         0.190808         1.439794        -1.805676
 H        -1.319944         3.139493         2.704819
 H        -1.957378         1.528541         2.972878
 H         0.169073         2.621625         1.080797
