19
Iteration:  2025
 O         0.294182        -0.328755         0.256549
 C        -0.600513         0.754104         0.172304
 C        -2.128919         0.441810         0.344758
 C        -2.140070         2.114808         0.312987
 C        -1.868608         2.409557        -1.078658
 C        -0.685129         1.358349        -1.201984
 O        -2.808616         2.883519         1.309050
 C        -1.614913         2.484942         2.235156
 C        -0.759963         2.027748         1.043744
 H         0.447708        -0.394110         1.229348
 H        -2.533138         0.039274        -0.540869
 H        -2.658901         0.194694         1.298976
 H        -2.691752         2.086905        -1.760977
 H        -1.493884         3.370579        -1.244636
 H        -0.894778         0.519184        -1.863703
 H         0.230633         1.841194        -1.494239
 H        -1.174315         3.385035         2.707391
 H        -1.965368         1.867592         3.014710
 H        -0.037509         2.763205         0.795043
