19
Iteration:  3379charge 0 multiplicity 1
 O         0.319797        -0.317194         0.366568
 C        -0.641171         0.722096         0.067092
 C        -2.107158         0.605322         0.279265
 C        -2.030719         2.217682         0.356611
 C        -1.725945         2.546202        -1.135732
 C        -0.660958         1.371928        -1.310419
 O        -2.879866         2.768252         1.387006
 C        -1.850656         2.198424         2.305229
 C        -0.746979         2.053102         1.129018
 H         1.110877        -0.100927        -0.170041
 H        -2.796241         0.185746        -0.557701
 H        -2.645890         0.224884         1.101392
 H        -2.674468         2.571706        -1.710017
 H        -1.253559         3.503269        -1.233132
 H        -0.889435         0.641620        -2.161633
 H         0.344407         1.738913        -1.528185
 H        -1.419944         3.041301         2.932965
 H        -2.378610         1.397048         2.847987
 H         0.144463         2.645280         1.271024
