19
Iteration:  3027
 O         0.374241        -0.274549         0.339493
 C        -0.747129         0.628751         0.169074
 C        -2.178259         0.400720         0.255850
 C        -2.150692         2.025568         0.287301
 C        -1.882474         2.510883        -1.150420
 C        -0.600297         1.526641        -1.144527
 O        -2.734954         2.851611         1.390712
 C        -1.681855         2.470056         2.254836
 C        -0.766930         2.039456         1.070415
 H         0.437961        -0.858104        -0.446873
 H        -2.811562        -0.093372        -0.444844
 H        -2.484197         0.092052         1.332709
 H        -2.561295         2.030424        -1.934749
 H        -1.737858         3.575997        -1.029189
 H        -0.870666         0.839404        -1.943410
 H         0.436594         1.986174        -1.295405
 H        -1.327582         3.354902         2.792956
 H        -1.834130         1.592999         2.837364
 H         0.038013         2.670947         0.681770
