19
Iteration:  2967charge 0 multiplicity 1
 O         0.213350        -0.347305         0.444466
 C        -0.639052         0.788598         0.263541
 C        -2.022260         0.520173         0.380645
 C        -2.129746         2.103676         0.216437
 C        -1.844257         2.521936        -1.167261
 C        -0.750577         1.400514        -1.312402
 O        -2.758559         2.781239         1.364034
 C        -1.648953         2.242917         2.216453
 C        -0.778726         2.156001         1.005607
 H         1.119947        -0.101358         0.148814
 H        -2.539038        -0.006745        -0.455093
 H        -2.392494         0.192663         1.398186
 H        -2.678797         2.566660        -1.848275
 H        -1.472587         3.587234        -1.094618
 H        -1.053240         0.549707        -1.994961
 H         0.182714         1.823333        -1.650559
 H        -1.297185         3.013746         2.950841
 H        -1.902466         1.275589         2.812430
 H        -0.065483         2.992714         0.703180
