19
Iteration:  3916charge 0 multiplicity 1
 O         0.284641        -0.201949         0.418235
 C        -0.710065         0.769233         0.273815
 C        -2.233596         0.551003         0.169913
 C        -2.079039         2.111672         0.334860
 C        -1.816354         2.503666        -1.128284
 C        -0.569636         1.520226        -1.238436
 O        -2.819135         2.770999         1.312746
 C        -1.664407         2.230404         2.279860
 C        -0.705050         1.970683         1.103222
 H         0.473944        -0.732860        -0.384906
 H        -2.620671         0.149292        -0.834534
 H        -2.752464         0.003550         0.979312
 H        -2.527092         2.018966        -1.755108
 H        -1.620654         3.671470        -1.440647
 H        -0.839015         0.700919        -1.874751
 H         0.438510         1.944453        -1.412998
 H        -1.299885         2.925586         2.973330
 H        -1.987221         1.254872         2.679235
 H         0.043695         2.729234         0.984422
