19
Iteration:  3118
 O         0.341847        -0.188606         0.316375
 C        -0.740905         0.644176         0.059189
 C        -2.278015         0.445189         0.345561
 C        -2.085904         2.102946         0.369686
 C        -1.781777         2.511769        -1.057359
 C        -0.590030         1.478954        -1.342075
 O        -2.762890         2.849321         1.392195
 C        -1.738960         2.297203         2.233237
 C        -0.743588         1.940802         1.005401
 H         0.695500        -0.028150         1.213344
 H        -2.849443        -0.108379        -0.445065
 H        -2.527933         0.113054         1.323766
 H        -2.592077         2.421186        -1.780410
 H        -1.286001         3.477748        -0.989037
 H        -0.584630         0.778712        -2.199273
 H         0.393048         1.825839        -1.211939
 H        -1.434977         3.209369         2.739073
 H        -2.079238         1.571401         2.902301
 H        -0.068735         2.760060         0.876859
