19
Iteration:  2874charge 0 multiplicity 1
 O         0.343640        -0.297078         0.260286
 C        -0.603774         0.738536         0.145977
 C        -2.087632         0.470539         0.405893
 C        -2.125101         2.071066         0.356827
 C        -1.811725         2.448446        -1.205250
 C        -0.704950         1.360927        -1.392144
 O        -2.749187         2.881330         1.380495
 C        -1.831870         2.401378         2.341304
 C        -0.732045         2.085735         1.072977
 H         0.053934        -0.750288         1.072185
 H        -2.766814        -0.057900        -0.331408
 H        -2.049862         0.089843         1.400385
 H        -2.710499         2.420486        -1.930967
 H        -1.376391         3.481775        -1.235730
 H        -1.008219         0.554810        -2.016221
 H         0.270839         1.802097        -1.801096
 H        -1.545550         3.331059         2.953926
 H        -2.132519         1.613242         3.013058
 H        -0.055186         2.895433         1.047587
