19
Iteration:  4314charge 0 multiplicity 1
 O         0.212506        -0.332881         0.396673
 C        -0.601433         0.743524         0.109581
 C        -2.185013         0.499124         0.226245
 C        -2.173126         2.121123         0.176347
 C        -1.713957         2.564881        -1.174757
 C        -0.581511         1.490574        -1.249338
 O        -2.827977         2.739660         1.498708
 C        -1.693199         2.301776         2.301992
 C        -0.774703         2.038812         1.034846
 H         0.690955        -0.228431         1.243966
 H        -2.525202         0.015363        -0.740286
 H        -2.634254        -0.021862         1.064422
 H        -2.425194         2.603501        -2.052223
 H        -1.244381         3.498107        -1.030939
 H        -1.032732         0.825770        -2.007907
 H         0.388351         1.876900        -1.438546
 H        -1.336418         3.207730         2.980327
 H        -1.959061         1.400987         2.798021
 H         0.014638         2.836711         0.896307
