19
Iteration:  2528charge 0 multiplicity 1
 O         0.348344        -0.289949         0.394996
 C        -0.703842         0.711888         0.252125
 C        -2.170817         0.425963         0.315384
 C        -2.245901         2.030293         0.355893
 C        -1.952257         2.384153        -1.091222
 C        -0.637969         1.472131        -1.297819
 O        -2.727493         2.828442         1.379971
 C        -1.566172         2.596847         2.194307
 C        -0.708297         1.998967         0.962031
 H        -0.097367        -1.091225         0.038775
 H        -2.514226        -0.172056        -0.468485
 H        -2.327642         0.052943         1.261167
 H        -2.764987         2.127554        -1.741326
 H        -1.713577         3.439265        -1.135702
 H        -0.671846         0.842328        -2.185580
 H         0.244591         2.161140        -1.382243
 H        -1.132516         3.538466         2.595093
 H        -1.654312         1.819950         2.894878
 H        -0.056882         2.868830         0.580850
