19
Iteration:  4994
 O         0.222239        -0.402724         0.352466
 C        -0.642999         0.704800         0.176332
 C        -2.068151         0.442227         0.191334
 C        -2.063159         2.182904         0.315488
 C        -1.730252         2.599673        -1.082227
 C        -0.510713         1.592954        -1.234174
 O        -2.947067         2.769207         1.335106
 C        -1.824398         2.228874         2.240300
 C        -0.770085         2.053331         1.107047
 H         1.011461        -0.180085         0.840688
 H        -2.546936        -0.106486        -0.624513
 H        -2.336024         0.096967         1.108473
 H        -2.533483         2.466070        -1.803088
 H        -1.350214         3.615176        -1.027759
 H        -0.607704         0.926851        -2.066903
 H         0.490575         2.086289        -1.482785
 H        -1.528939         3.009459         2.932937
 H        -2.230530         1.300217         2.746454
 H        -0.044366         2.904337         0.942322
