19
Iteration:   823
 O         0.416573        -0.074210         0.521607
 C        -0.675773         0.726246         0.137041
 C        -2.185367         0.517296         0.369466
 C        -2.075110         2.199943         0.310601
 C        -1.882893         2.404074        -1.228413
 C        -0.752855         1.222286        -1.321237
 O        -2.778199         2.801787         1.347495
 C        -1.639946         2.357504         2.246552
 C        -0.767859         2.056259         0.964572
 H         0.299568        -1.052284         0.586705
 H        -2.703272        -0.068928        -0.358712
 H        -2.320592         0.166719         1.397884
 H        -2.879598         2.123479        -1.710571
 H        -1.563640         3.418216        -1.471152
 H        -0.780655         0.393346        -2.063532
 H         0.208742         1.826491        -1.620516
 H        -1.407464         3.196518         2.960875
 H        -2.087283         1.594344         2.842634
 H         0.202308         2.616016         0.927175
