19
Iteration:  1970
 O         0.345951        -0.257018         0.304695
 C        -0.686083         0.702790         0.224250
 C        -2.126394         0.458299         0.304189
 C        -2.164228         2.124945         0.346103
 C        -1.868868         2.369181        -1.142993
 C        -0.667831         1.331988        -1.241494
 O        -2.762051         2.968359         1.398844
 C        -1.634563         2.442481         2.217271
 C        -0.724796         2.064153         1.013594
 H         0.138056        -0.929736         0.956501
 H        -2.712256         0.084800        -0.468953
 H        -2.546602         0.008092         1.221270
 H        -2.668460         2.002883        -1.828413
 H        -1.643839         3.315271        -1.495859
 H        -0.801919         0.537137        -1.976122
 H         0.252691         1.798204        -1.475300
 H        -1.467837         3.202863         2.962877
 H        -1.882500         1.527929         2.706420
 H        -0.110063         2.802297         0.628688
