19
Iteration:  2044
 O         0.316345        -0.339463         0.398587
 C        -0.668991         0.694044         0.229899
 C        -2.221150         0.498485         0.302778
 C        -2.178184         2.038134         0.284463
 C        -1.840859         2.453613        -1.196768
 C        -0.632612         1.406758        -1.305656
 O        -2.757058         2.758154         1.461807
 C        -1.570645         2.556578         2.204056
 C        -0.801894         2.115850         0.933310
 H         0.288062        -0.653235         1.343684
 H        -2.713222        -0.053150        -0.450801
 H        -2.271033        -0.051898         1.195868
 H        -2.677484         2.466976        -1.901128
 H        -1.514065         3.474735        -1.069600
 H        -0.918345         0.703526        -2.114479
 H         0.366113         1.776899        -1.489665
 H        -1.260957         3.439004         2.763673
 H        -1.753002         1.800267         3.036744
 H        -0.102715         2.879084         0.630511
