19
Iteration:  2195
 O         0.243170        -0.289898         0.481361
 C        -0.654811         0.779031         0.123992
 C        -2.120038         0.546178         0.342792
 C        -2.092452         2.105720         0.294942
 C        -1.902488         2.451986        -1.147403
 C        -0.676173         1.358739        -1.300339
 O        -2.785266         2.699569         1.383477
 C        -1.620295         2.417037         2.295771
 C        -0.636734         2.141890         0.871699
 H        -0.285269        -0.709196         1.184789
 H        -2.604499         0.003981        -0.444962
 H        -2.364538         0.075886         1.294919
 H        -2.786851         2.248473        -1.749023
 H        -1.566799         3.447794        -1.381505
 H        -0.847214         0.634146        -2.126694
 H         0.184683         1.927751        -1.573854
 H        -1.329542         3.269558         2.763559
 H        -1.772404         1.547070         2.944333
 H        -0.093305         3.037615         0.612688
