19
Iteration:  2973
 O         0.255900        -0.341679         0.433076
 C        -0.628430         0.829858         0.227785
 C        -2.090366         0.522786         0.401038
 C        -2.094134         2.127124         0.280224
 C        -1.792058         2.566608        -1.189625
 C        -0.792855         1.378556        -1.283696
 O        -2.737515         2.748085         1.318572
 C        -1.688307         2.230367         2.288362
 C        -0.814174         2.151396         0.967975
 H         1.107765        -0.170061        -0.001723
 H        -2.576976        -0.098751        -0.314393
 H        -2.416614         0.235842         1.447360
 H        -2.695140         2.432530        -1.895179
 H        -1.487094         3.587806        -1.395204
 H        -0.965627         0.524316        -1.920690
 H         0.176993         1.781778        -1.673415
 H        -1.176694         2.915555         2.982987
 H        -1.972798         1.383315         2.838583
 H        -0.068155         2.869701         0.743016
