19
Iteration:  3824
 O         0.169425        -0.403101         0.310436
 C        -0.651771         0.710826         0.166133
 C        -2.140078         0.483952         0.197944
 C        -2.124677         2.087751         0.276388
 C        -1.749053         2.554413        -1.184967
 C        -0.509215         1.587560        -1.305519
 O        -2.869979         2.707378         1.508494
 C        -1.738272         2.418569         2.302307
 C        -0.744340         2.044423         1.113901
 H         0.849569        -0.079640         0.931859
 H        -2.567972         0.011783        -0.652411
 H        -2.384344        -0.111619         1.105928
 H        -2.585834         2.181604        -1.929394
 H        -1.478338         3.574085        -1.322575
 H        -0.553940         0.733711        -2.127618
 H         0.466345         2.147639        -1.346892
 H        -1.357376         3.381783         2.786823
 H        -2.067810         1.647539         3.000363
 H         0.186014         2.633491         0.797199
