19
Iteration:  4163charge 0 multiplicity 1
 O         0.260893        -0.217937         0.249421
 C        -0.722796         0.740312         0.213465
 C        -2.230359         0.580942         0.224890
 C        -2.118330         2.126786         0.319267
 C        -1.705418         2.473879        -1.180016
 C        -0.556053         1.468984        -1.187736
 O        -2.803449         2.761605         1.359406
 C        -1.703171         2.211121         2.301274
 C        -0.800630         2.056864         1.122294
 H         0.577969        -0.257629         1.168774
 H        -2.514384        -0.006521        -0.682743
 H        -2.660062         0.022409         1.027513
 H        -2.502514         2.344148        -1.998458
 H        -1.261812         3.467054        -1.407776
 H        -0.661046         0.671318        -1.921639
 H         0.435392         1.814029        -1.380809
 H        -1.285880         2.845391         3.128043
 H        -1.935286         1.309160         2.819238
 H        -0.056851         2.835168         0.879907
