19
Iteration:  3019charge 0 multiplicity 1
 O         0.371459        -0.239518         0.307483
 C        -0.648908         0.676527         0.159046
 C        -2.273576         0.442579         0.249225
 C        -2.175966         2.098614         0.298886
 C        -1.841234         2.421065        -1.110519
 C        -0.606483         1.449868        -1.129549
 O        -2.745594         2.845665         1.362555
 C        -1.654095         2.443085         2.309753
 C        -0.766622         1.997533         1.085752
 H         0.668698        -0.640316        -0.537304
 H        -2.705037        -0.028195        -0.626728
 H        -2.690620        -0.055488         1.243473
 H        -2.665865         2.268160        -1.888970
 H        -1.644988         3.476302        -1.304365
 H        -0.838315         0.761711        -1.990238
 H         0.332421         1.865939        -1.440220
 H        -1.336666         3.381458         2.842327
 H        -1.930035         1.767586         3.148275
 H        -0.176860         2.800124         0.628433
