19
Iteration:   460charge 0 multiplicity 1
 O         0.367001        -0.223359         0.170405
 C        -0.600966         0.751748         0.269980
 C        -2.120108         0.469203         0.661136
 C        -2.126808         2.153854         0.282650
 C        -1.905852         2.299479        -1.207810
 C        -0.727687         1.253912        -1.189040
 O        -2.773275         2.913147         1.295266
 C        -1.676485         2.490552         2.196387
 C        -0.760711         2.084149         0.947372
 H         0.109225        -0.895167         0.847600
 H        -2.490852        -0.378205         0.181515
 H        -2.334016         0.369407         1.703869
 H        -2.828200         2.002161        -1.744615
 H        -1.611934         3.303415        -1.600235
 H        -0.921399         0.411622        -1.850570
 H         0.298777         1.737881        -1.446218
 H        -1.152104         3.456264         2.519416
 H        -2.046803         1.726703         2.904593
 H        -0.074947         2.849828         0.634575
