19
Iteration:  3242charge 0 multiplicity 1
 O         0.397174        -0.218904         0.357460
 C        -0.712350         0.739704         0.170294
 C        -2.164586         0.552482         0.213338
 C        -2.125680         2.107033         0.284239
 C        -1.753092         2.497479        -1.160819
 C        -0.657914         1.442345        -1.340869
 O        -2.807968         2.863624         1.449647
 C        -1.771739         2.237831         2.284421
 C        -0.741759         1.943237         1.104238
 H         0.152612        -1.008339         0.879296
 H        -2.664399        -0.003054        -0.597911
 H        -2.493421        -0.000178         1.182857
 H        -2.557723         2.716921        -1.805686
 H        -1.195846         3.490128        -1.166407
 H        -0.933337         0.715393        -2.076909
 H         0.281666         1.983700        -1.634654
 H        -1.369234         3.079879         2.800081
 H        -2.195575         1.399272         2.890107
 H         0.096051         2.720431         1.095345
