19
Iteration:   342charge 0 multiplicity 1
 O         0.440160        -0.208148         0.333217
 C        -0.627022         0.758926         0.258412
 C        -2.104932         0.425734         0.512400
 C        -2.117299         2.094186         0.294419
 C        -1.955785         2.268044        -1.180111
 C        -0.798739         1.261276        -1.273307
 O        -2.679824         2.984266         1.306952
 C        -1.636748         2.507163         2.219018
 C        -0.862129         2.082577         1.030903
 H         0.212717        -0.847599        -0.353203
 H        -2.698601        -0.055004        -0.353849
 H        -2.166340         0.055048         1.551048
 H        -2.864715         1.804156        -1.696205
 H        -1.745477         3.278682        -1.523570
 H        -0.986723         0.418409        -1.918149
 H         0.069259         1.893805        -1.569118
 H        -1.235421         3.376487         2.822200
 H        -1.965314         1.658436         2.787568
 H        -0.123324         2.882222         0.812329
