19
Iteration:  4895
 O         0.238348        -0.303791         0.535843
 C        -0.663432         0.810410         0.144511
 C        -2.076445         0.565657         0.165247
 C        -2.019778         2.128433         0.279389
 C        -1.704431         2.674577        -1.083318
 C        -0.717744         1.469321        -1.262339
 O        -2.836651         2.701924         1.295772
 C        -1.844657         2.143710         2.245850
 C        -0.721486         1.962860         1.021809
 H         1.090459         0.128839         0.353455
 H        -2.567340         0.127713        -0.678344
 H        -2.435766         0.194646         1.088500
 H        -2.536213         2.674262        -1.769049
 H        -1.166656         3.608795        -0.882066
 H        -0.793900         0.636578        -1.868064
 H         0.184393         2.020533        -1.668370
 H        -1.689219         2.843554         3.125685
 H        -2.199836         1.243047         2.787058
 H         0.076547         2.731792         1.208947
