19
Iteration:   275
 O         0.332096        -0.345453         0.275527
 C        -0.755194         0.493215         0.781672
 C        -0.426684         1.713926         1.572565
 C        -1.903370         2.065033         1.167954
 C        -2.194868         3.407550         0.579418
 C        -1.246464         3.003537        -0.571612
 C        -1.556942         1.484426        -0.208444
 O        -2.693797         1.173160         2.028319
 C        -1.943755        -0.057728         1.645679
 H         1.045975        -0.641708         0.994691
 H        -0.228260         1.760507         2.571762
 H         0.495051         2.284484         1.153572
 H        -3.193850         3.443908         0.142339
 H        -2.001513         4.367036         1.114368
 H        -1.517879         3.428723        -1.576858
 H        -0.267599         3.328617        -0.432655
 H        -2.236643         1.051699        -0.823800
 H        -1.307054        -0.556685         2.491441
 H        -2.695835        -0.762248         1.255861
