19
Iteration:  1842
 O         0.315697        -0.372674         0.454532
 C        -0.724987         0.556186         0.718432
 C        -0.414844         1.771640         1.665138
 C        -1.872333         2.053999         1.130802
 C        -2.200429         3.444871         0.690248
 C        -1.190697         3.011621        -0.548114
 C        -1.561016         1.474475        -0.198096
 O        -2.718397         1.126914         1.917630
 C        -1.935723        -0.083046         1.503781
 H         0.291773        -0.510371        -0.478572
 H        -0.335266         1.621076         2.731126
 H         0.507207         2.285378         1.291135
 H        -3.246859         3.448865         0.329361
 H        -1.835459         4.214334         1.435475
 H        -1.523689         3.235902        -1.597610
 H        -0.196148         3.347700        -0.351481
 H        -2.433022         1.078625        -0.749560
 H        -1.495266        -0.635420         2.372648
 H        -2.506386        -0.642968         0.883879
