19
Iteration:  2960charge 0 multiplicity 1
 O         0.422950        -0.230326         0.389416
 C        -0.721150         0.568311         0.736959
 C        -0.496591         1.749356         1.654113
 C        -1.926524         2.042335         1.172765
 C        -2.103041         3.428752         0.660593
 C        -1.232376         2.953920        -0.565783
 C        -1.526577         1.444523        -0.186920
 O        -2.705145         1.114067         1.907688
 C        -2.020156        -0.053670         1.549233
 H         0.063689        -1.116796        -0.052490
 H        -0.437548         1.437109         2.701048
 H         0.329418         2.240578         1.284844
 H        -3.147851         3.743812         0.446691
 H        -1.595962         4.181708         1.352987
 H        -1.597047         3.246055        -1.616122
 H        -0.299964         3.329513        -0.550223
 H        -2.314608         0.908124        -0.724674
 H        -1.511764        -0.583030         2.381158
 H        -2.668267        -0.853011         1.134315
