19
Iteration:  1121charge 0 multiplicity 1
 O         0.275022        -0.350956         0.251225
 C        -0.672317         0.572706         0.829042
 C        -0.326412         1.713485         1.707204
 C        -1.849902         2.070723         1.203456
 C        -2.198336         3.429307         0.642497
 C        -1.340216         2.948709        -0.630247
 C        -1.571603         1.461783        -0.094090
 O        -2.728607         1.169280         1.832803
 C        -1.897427        -0.015307         1.585025
 H         0.872609        -0.704223         0.863401
 H        -0.031919         1.469423         2.721606
 H         0.313244         2.310142         1.168678
 H        -3.209781         3.426388         0.351950
 H        -1.899606         4.267497         1.260091
 H        -1.623047         3.198053        -1.738021
 H        -0.366943         3.213218        -0.605493
 H        -2.451514         1.118493        -0.587685
 H        -1.580165        -0.443700         2.550065
 H        -2.510395        -0.853378         1.110663
