19
Iteration:  4787
 O         0.278385        -0.388903         0.322825
 C        -0.705221         0.550054         0.771907
 C        -0.289034         1.768657         1.543328
 C        -1.892839         2.160710         1.254338
 C        -2.278864         3.397731         0.507469
 C        -1.360514         2.892817        -0.613070
 C        -1.516744         1.432360        -0.194047
 O        -2.623347         1.204502         2.069990
 C        -1.898082        -0.029946         1.614101
 H         0.590653        -0.925204         1.012048
 H        -0.132137         1.618252         2.646873
 H         0.327384         2.563892         1.092828
 H        -3.284636         3.344039         0.081762
 H        -2.122800         4.357167         0.988512
 H        -1.749025         3.206728        -1.602704
 H        -0.267380         3.365321        -0.433027
 H        -2.337958         0.760087        -0.671174
 H        -1.625115        -0.606737         2.496480
 H        -2.596826        -0.530868         0.858381
