19
Iteration:   928charge 0 multiplicity 1
 O         0.196755        -0.358614         0.218806
 C        -0.641075         0.559517         0.754179
 C        -0.415131         1.815205         1.681197
 C        -1.878617         2.065289         1.242152
 C        -2.198891         3.382976         0.634147
 C        -1.279963         2.921355        -0.580537
 C        -1.520216         1.445399        -0.135120
 O        -2.693372         1.139127         1.919153
 C        -1.863524        -0.019868         1.570161
 H         0.869151        -0.792354         0.896463
 H        -0.262255         1.701728         2.795500
 H         0.184655         2.587967         1.341419
 H        -3.262702         3.604135         0.382163
 H        -1.745961         4.275451         1.042784
 H        -1.617933         3.135299        -1.625014
 H        -0.419212         3.472090        -0.515422
 H        -2.255949         0.899283        -0.645204
 H        -1.559670        -0.470367         2.530529
 H        -2.435199        -0.673694         0.950040
