19
Iteration:  2933
 O         0.386298        -0.254687         0.298820
 C        -0.725266         0.557446         0.809326
 C        -0.487388         1.726191         1.679449
 C        -1.916992         2.067863         1.222735
 C        -2.103925         3.485885         0.564965
 C        -1.161385         2.978369        -0.564726
 C        -1.608952         1.478148        -0.165180
 O        -2.776718         1.068715         1.883166
 C        -1.919027        -0.104527         1.615296
 H         0.029434        -1.233518         0.085740
 H        -0.219540         1.434527         2.711800
 H         0.428009         2.397537         1.322343
 H        -3.167415         3.634743         0.267927
 H        -1.990309         4.479636         1.238223
 H        -1.313610         3.277563        -1.561371
 H        -0.033127         3.426219        -0.413526
 H        -2.514555         1.046713        -0.630070
 H        -1.470835        -0.658474         2.509771
 H        -2.443131        -0.829799         0.974963
