19
Iteration:  3162charge 0 multiplicity 1
 O         0.248553        -0.404806         0.321718
 C        -0.659577         0.598952         0.732684
 C        -0.377835         1.795565         1.675436
 C        -1.956177         2.107629         1.167400
 C        -2.261651         3.421629         0.614662
 C        -1.194150         2.960173        -0.602367
 C        -1.542743         1.468226        -0.158330
 O        -2.671689         1.135278         1.932968
 C        -1.872201        -0.072519         1.576457
 H         0.433436        -1.087916         1.040670
 H        -0.154278         1.760472         2.779828
 H         0.195486         2.685938         1.441692
 H        -3.292405         3.302575         0.280842
 H        -2.107134         4.377090         1.050983
 H        -1.614516         3.229509        -1.477581
 H        -0.130647         3.268150        -0.366855
 H        -2.287504         0.959758        -0.865075
 H        -1.419921        -0.522577         2.437200
 H        -2.496602        -0.747313         0.888103
