19
Iteration:  3183
 O         0.229391        -0.303462         0.244842
 C        -0.673155         0.500521         0.802309
 C        -0.467299         1.778940         1.676684
 C        -1.873474         2.102031         1.223555
 C        -2.240578         3.381846         0.539219
 C        -1.273098         2.995607        -0.589270
 C        -1.415469         1.476472        -0.174989
 O        -2.674084         1.118056         1.948609
 C        -1.892681        -0.048542         1.644252
 H         0.392711        -1.192575         0.795727
 H        -0.379621         1.663103         2.807424
 H         0.411955         2.391142         1.449476
 H        -3.288473         3.421991         0.056710
 H        -1.876937         4.326763         0.949954
 H        -1.594539         3.073152        -1.509909
 H        -0.208656         3.310854        -0.372482
 H        -2.210028         1.053334        -0.912489
 H        -1.636292        -0.359167         2.584376
 H        -2.482587        -0.692635         0.952921
