19
Iteration:  3920
 O         0.364125        -0.274102         0.372513
 C        -0.761118         0.505067         0.778004
 C        -0.456545         1.804091         1.617797
 C        -1.905954         2.082359         1.232811
 C        -2.126010         3.490099         0.579026
 C        -1.325815         2.941255        -0.653816
 C        -1.597291         1.482693        -0.183944
 O        -2.627851         1.097033         1.921342
 C        -1.926381        -0.159805         1.624695
 H         0.339076        -1.229419         0.580674
 H        -0.282835         1.523388         2.677578
 H         0.308141         2.535700         1.358384
 H        -3.168261         3.993109         0.479988
 H        -1.478836         4.298221         1.090541
 H        -1.641960         3.256133        -1.658463
 H        -0.251997         3.278332        -0.432869
 H        -2.420677         1.153869        -0.922647
 H        -1.514098        -0.609904         2.469764
 H        -2.495316        -0.845869         1.080577
