19
Iteration:  1529charge 0 multiplicity 1
 O         0.222492        -0.451317         0.413781
 C        -0.649762         0.559386         0.778167
 C        -0.428549         1.757844         1.689252
 C        -1.903824         2.042717         1.250902
 C        -2.151863         3.471424         0.626437
 C        -1.318928         2.995791        -0.646740
 C        -1.539050         1.467730        -0.193828
 O        -2.669989         1.109964         1.960141
 C        -1.881639        -0.065480         1.474213
 H         0.869447        -0.044946        -0.239291
 H        -0.181061         1.851689         2.770529
 H         0.243299         2.455751         1.160293
 H        -3.193576         3.840159         0.494489
 H        -1.681060         4.359482         1.217972
 H        -1.806756         3.299033        -1.537953
 H        -0.274541         3.427432        -0.577457
 H        -2.322551         0.941111        -0.792189
 H        -1.535445        -0.513680         2.337760
 H        -2.494536        -0.651537         0.811140
