19
Iteration:  4910charge 0 multiplicity 1
 O         0.227381        -0.417715         0.288037
 C        -0.722556         0.554877         0.820527
 C        -0.366543         1.881982         1.621204
 C        -1.822062         2.069056         1.228268
 C        -2.229812         3.437866         0.491975
 C        -1.348073         2.889754        -0.663893
 C        -1.567321         1.452927        -0.161673
 O        -2.594393         1.157955         2.090683
 C        -1.893548        -0.003141         1.588383
 H         0.759833        -0.672658         1.038191
 H        -0.403193         1.712391         2.702631
 H         0.432472         2.521923         1.223049
 H        -3.235690         3.369431         0.145421
 H        -1.941729         4.354495         0.831114
 H        -1.721336         3.190534        -1.748781
 H        -0.274088         3.102893        -0.461603
 H        -2.190057         0.731560        -0.837640
 H        -1.612264        -0.651816         2.409900
 H        -2.559105        -0.631818         0.905700
