19
Iteration:   581
 O         0.244805        -0.343508         0.313078
 C        -0.712654         0.504391         0.784043
 C        -0.376607         1.866595         1.677577
 C        -1.906178         2.123391         1.181302
 C        -2.170268         3.493661         0.574716
 C        -1.312898         2.932397        -0.576591
 C        -1.557906         1.456229        -0.160682
 O        -2.625433         1.104506         1.961839
 C        -1.904326        -0.167020         1.558741
 H         0.618465        -0.802351         1.143319
 H        -0.215775         1.800600         2.736110
 H         0.381256         2.582093         1.155074
 H        -3.189762         3.562390         0.174825
 H        -1.931334         4.403603         1.129782
 H        -1.620879         3.068115        -1.631271
 H        -0.286207         3.399999        -0.587056
 H        -2.349504         1.045093        -0.915220
 H        -1.530551        -0.676129         2.384421
 H        -2.512909        -0.808029         0.903501
