19
Iteration:  3080
 O         0.289928        -0.344159         0.308639
 C        -0.688830         0.587846         0.765821
 C        -0.487910         1.751640         1.674591
 C        -1.931500         2.162279         1.222898
 C        -2.125798         3.495930         0.600849
 C        -1.237890         2.868308        -0.608413
 C        -1.556740         1.479342        -0.119978
 O        -2.707572         1.082747         1.887127
 C        -1.891688        -0.104276         1.598448
 H         1.097545        -0.133266         0.707365
 H        -0.409337         1.438045         2.698625
 H         0.301470         2.385271         1.284921
 H        -3.186622         3.596514         0.207364
 H        -1.696166         4.395026         1.237012
 H        -1.629749         3.085486        -1.673238
 H        -0.257278         3.199554        -0.686222
 H        -2.424359         1.099581        -0.614651
 H        -1.615418        -0.749663         2.465865
 H        -2.473780        -0.759910         0.989467
