19
Iteration:  1365
 O         0.250283        -0.365698         0.293380
 C        -0.713016         0.545019         0.684894
 C        -0.476547         1.754401         1.622085
 C        -1.954628         2.036789         1.146302
 C        -2.190614         3.371696         0.604119
 C        -1.229715         2.967730        -0.541759
 C        -1.501420         1.481137        -0.215481
 O        -2.648008         1.202954         2.034515
 C        -1.875227        -0.023848         1.586841
 H         0.756379        -0.741177         1.099070
 H        -0.320331         1.400454         2.555795
 H         0.357119         2.499602         1.456498
 H        -3.189852         3.494106         0.335939
 H        -2.031874         4.188486         1.321582
 H        -1.671160         3.198505        -1.456966
 H        -0.141813         3.323537        -0.363694
 H        -2.210081         1.030707        -0.960478
 H        -1.405767        -0.406373         2.513525
 H        -2.504504        -0.708740         0.963753
