19
Iteration:  1764
 O         0.333079        -0.286077         0.419782
 C        -0.724065         0.471270         0.721686
 C        -0.463743         1.780585         1.601411
 C        -1.944083         2.060371         1.225430
 C        -2.139784         3.507979         0.652800
 C        -1.159763         2.996696        -0.576499
 C        -1.530796         1.542905        -0.160937
 O        -2.713714         1.051821         1.976593
 C        -1.949353        -0.151693         1.473557
 H         0.086130        -1.085212         0.061976
 H        -0.206760         1.590838         2.558252
 H         0.371463         2.465952         1.198613
 H        -3.123750         3.838562         0.230631
 H        -1.972656         4.354231         1.289420
 H        -1.476637         3.252743        -1.534219
 H        -0.114135         3.376535        -0.432529
 H        -2.340307         1.134185        -0.802951
 H        -1.702318        -0.683798         2.372908
 H        -2.506669        -0.725749         0.834801
