19
Iteration:  2643charge 0 multiplicity 1
 O         0.318261        -0.349134         0.328475
 C        -0.708842         0.543366         0.814543
 C        -0.531945         1.806417         1.719301
 C        -1.906855         2.080712         1.247457
 C        -2.167679         3.506742         0.561372
 C        -1.107229         2.947627        -0.596285
 C        -1.573584         1.500992        -0.157585
 O        -2.686662         1.037901         1.955737
 C        -1.920225        -0.105354         1.518831
 H         0.296046        -0.277773        -0.579634
 H        -0.480383         1.677620         2.769835
 H         0.325695         2.430751         1.356849
 H        -3.166350         3.518710         0.065200
 H        -1.950246         4.395314         1.108646
 H        -1.478370         3.212286        -1.514184
 H        -0.082969         3.258629        -0.313752
 H        -2.482442         1.043198        -0.633407
 H        -1.555052        -0.580322         2.342127
 H        -2.548901        -0.800847         0.927664
