19
Iteration:   910
 O         0.232001        -0.388909         0.208586
 C        -0.662111         0.623097         0.828128
 C        -0.372930         1.869355         1.755941
 C        -1.898317         2.109945         1.208799
 C        -2.159066         3.506292         0.690058
 C        -1.363315         2.861198        -0.622994
 C        -1.533313         1.444579        -0.127542
 O        -2.704463         1.152539         1.869255
 C        -1.807479        -0.118705         1.502617
 H         0.598152        -0.846089         1.104669
 H        -0.244414         1.591014         2.832284
 H         0.488131         2.462216         1.338374
 H        -3.223627         3.361714         0.278236
 H        -1.916571         4.393776         1.315291
 H        -1.881717         3.052482        -1.499886
 H        -0.145396         3.099393        -0.892677
 H        -2.427204         0.771116        -0.542720
 H        -1.597575        -0.646602         2.535511
 H        -2.548828        -0.731617         0.818294
