19
Iteration:   113
 O         0.284412        -0.415713         0.302968
 C        -0.642767         0.568231         0.722914
 C        -0.474675         1.740144         1.763311
 C        -1.756466         2.089554         1.274668
 C        -2.116528         3.392806         0.665319
 C        -1.453241         2.902154        -0.696430
 C        -1.456663         1.466021        -0.230945
 O        -2.729184         1.208638         1.883447
 C        -1.928524        -0.007217         1.612495
 H         1.052527        -0.488232         0.978460
 H        -0.260940         1.533697         2.775352
 H         0.248188         2.623882         1.369825
 H        -3.202071         3.441489         0.607950
 H        -1.772050         4.368470         1.072352
 H        -1.994573         3.090316        -1.703324
 H        -0.461457         3.353845        -0.888775
 H        -2.386083         0.963466        -0.753129
 H        -1.661012        -0.383096         2.586445
 H        -2.515831        -0.744686         0.992496
