19
Iteration:  2827
 O         0.338151        -0.345206         0.385298
 C        -0.706981         0.547585         0.776751
 C        -0.529128         1.787452         1.685046
 C        -1.926048         2.065367         1.288148
 C        -2.121890         3.504180         0.623162
 C        -1.245265         3.006439        -0.609499
 C        -1.422845         1.448647        -0.217038
 O        -2.719252         1.079565         1.932475
 C        -1.966667        -0.105531         1.522752
 H         0.156209        -0.560534        -0.601114
 H        -0.504726         1.718028         2.727407
 H         0.267162         2.494261         1.294624
 H        -3.069180         3.779946         0.301783
 H        -1.606988         4.163109         1.330245
 H        -1.742794         3.215828        -1.528083
 H        -0.175347         3.347477        -0.643484
 H        -2.112964         0.867627        -0.825309
 H        -1.590385        -0.698788         2.478144
 H        -2.513003        -0.858921         0.918929
