19
Iteration:   971
 O         0.318955        -0.328914         0.279245
 C        -0.763301         0.534955         0.711458
 C        -0.470016         1.735825         1.614643
 C        -1.912620         2.076890         1.204940
 C        -2.200230         3.423799         0.579827
 C        -1.259942         2.955580        -0.544215
 C        -1.591264         1.455521        -0.155748
 O        -2.586779         1.151176         1.956803
 C        -1.906525        -0.041565         1.602252
 H         0.766328        -0.624477         1.138256
 H        -0.223293         1.515396         2.686258
 H         0.305521         2.255733         1.179281
 H        -3.276933         3.490349         0.388267
 H        -1.970249         4.302441         1.159178
 H        -1.393805         3.298840        -1.606251
 H        -0.271399         3.157926        -0.313756
 H        -2.478547         1.168726        -0.745310
 H        -1.386474        -0.450399         2.436525
 H        -2.555876        -0.693720         1.097218
