19
Iteration:   500
 O         0.270128        -0.360689         0.263203
 C        -0.673215         0.573495         0.771050
 C        -0.333423         1.821934         1.687859
 C        -1.917053         2.113028         1.288830
 C        -2.166453         3.455136         0.621064
 C        -1.337201         2.893958        -0.657674
 C        -1.486276         1.433677        -0.121697
 O        -2.736792         1.111297         1.926848
 C        -1.927692        -0.054708         1.522866
 H         0.753160        -0.691697         1.124035
 H        -0.066062         1.700311         2.813895
 H         0.277680         2.558293         1.243745
 H        -3.128963         3.721178         0.146642
 H        -1.772411         4.361359         1.135134
 H        -1.888633         3.190348        -1.588867
 H        -0.303449         3.262276        -0.646574
 H        -2.319796         0.843328        -0.726958
 H        -1.629092        -0.603710         2.465993
 H        -2.379892        -0.921641         1.001391
