19
Iteration:  1888charge 0 multiplicity 1
 O         0.302553        -0.365768         0.353249
 C        -0.744543         0.491812         0.830639
 C        -0.415895         1.751551         1.715291
 C        -1.913805         2.090737         1.196085
 C        -2.172859         3.431467         0.581212
 C        -1.222901         3.019254        -0.586999
 C        -1.507505         1.559492        -0.087635
 O        -2.686104         1.069544         1.872603
 C        -1.937332        -0.101551         1.522910
 H         0.236464        -0.298652        -0.556857
 H        -0.263287         1.849270         2.883442
 H         0.370668         2.320938         1.304384
 H        -3.198914         3.514071         0.197419
 H        -1.746507         4.335462         1.250782
 H        -1.754154         3.283863        -1.585253
 H        -0.176487         3.272249        -0.509299
 H        -2.203844         1.033254        -0.719753
 H        -1.657885        -0.487475         2.552551
 H        -2.506642        -0.733915         0.877257
