19
Iteration:  2905
 O         0.273761        -0.373759         0.361339
 C        -0.691885         0.599974         0.769968
 C        -0.477640         1.786904         1.771402
 C        -1.901563         2.055797         1.211033
 C        -2.199519         3.459979         0.624230
 C        -1.221858         2.974798        -0.546934
 C        -1.440195         1.451666        -0.215648
 O        -2.698896         1.139476         1.881294
 C        -1.865458        -0.074773         1.521891
 H        -0.213603        -1.113567        -0.225572
 H        -0.384013         1.440203         2.795192
 H         0.289454         2.451422         1.558746
 H        -3.224947         3.544672         0.327460
 H        -2.067827         4.359532         1.184996
 H        -1.729762         3.109207        -1.572549
 H        -0.318185         3.445254        -0.489743
 H        -2.177903         0.951396        -0.872808
 H        -1.363257        -0.557167         2.359186
 H        -2.441336        -0.663148         0.787109
