19
Iteration:  1169
 O         0.269556        -0.375114         0.331064
 C        -0.727757         0.628876         0.703190
 C        -0.424801         1.804436         1.704634
 C        -1.989790         2.027400         1.205632
 C        -2.122217         3.442631         0.605431
 C        -1.288597         2.945776        -0.593663
 C        -1.616479         1.425776        -0.216476
 O        -2.629222         1.133572         2.015309
 C        -1.808546        -0.068585         1.493184
 H         0.664548        -0.704070         1.251496
 H        -0.547415         1.590453         2.759474
 H         0.334623         2.600930         1.309031
 H        -3.088329         3.779118         0.249791
 H        -1.567009         4.174867         1.137513
 H        -1.598550         3.368910        -1.451930
 H        -0.154255         3.190860        -0.664607
 H        -2.410330         0.938846        -0.889888
 H        -1.631317        -0.712029         2.337461
 H        -2.526847        -0.572444         0.955478
