19
Iteration:   198
 O         0.285390        -0.328887         0.268866
 C        -0.707913         0.469930         0.828050
 C        -0.453854         1.744609         1.696936
 C        -1.827835         2.107879         1.146333
 C        -2.214707         3.484123         0.578067
 C        -1.359232         3.011168        -0.627454
 C        -1.512881         1.384480        -0.156984
 O        -2.628192         1.163630         1.936312
 C        -1.915808        -0.044017         1.603364
 H         0.664336        -0.910308         0.908779
 H        -0.443234         1.674258         2.776278
 H         0.622070         2.204042         1.288432
 H        -3.291564         3.581972         0.424579
 H        -1.730388         4.351279         1.072632
 H        -1.665305         3.160410        -1.710374
 H        -0.411588         3.407525        -0.544184
 H        -2.277731         0.910749        -0.655521
 H        -1.647517        -0.524051         2.590379
 H        -2.444312        -0.837722         1.101459
