19
Iteration:  2352
 O         0.382133        -0.336561         0.399509
 C        -0.755745         0.562777         0.649232
 C        -0.444854         1.679356         1.645130
 C        -1.937326         2.080283         1.212511
 C        -2.142164         3.408382         0.612534
 C        -1.217819         2.991245        -0.463820
 C        -1.512690         1.470874        -0.198722
 O        -2.721077         1.130227         1.942082
 C        -1.976546        -0.033497         1.552603
 H         0.497566        -0.277548        -0.665890
 H        -0.386393         1.359609         2.675694
 H         0.401607         2.297068         1.502309
 H        -3.184165         3.610911         0.210506
 H        -1.996633         4.293295         1.084641
 H        -1.465236         3.397579        -1.467915
 H        -0.242480         3.291250        -0.388520
 H        -2.244509         1.062036        -0.886917
 H        -1.408097        -0.513185         2.466828
 H        -2.718723        -0.865720         1.257568
