19
Iteration:  1822charge 0 multiplicity 1
 O         0.344154        -0.359897         0.396135
 C        -0.668235         0.461777         0.824940
 C        -0.405842         1.715296         1.694222
 C        -1.860130         2.099828         1.305293
 C        -2.145761         3.498805         0.632682
 C        -1.358918         3.035756        -0.569057
 C        -1.467571         1.513656        -0.150073
 O        -2.717170         1.107258         1.762752
 C        -2.006823        -0.108497         1.564804
 H         0.227631        -0.573819        -0.623678
 H        -0.003546         1.468472         2.747031
 H         0.287186         2.295469         1.125398
 H        -3.119788         3.406239         0.285717
 H        -1.726923         4.434605         1.132145
 H        -1.765659         3.323146        -1.634358
 H        -0.381524         3.469537        -0.557513
 H        -2.211990         1.141871        -0.817139
 H        -1.788995        -0.488901         2.626699
 H        -2.602793        -0.767912         0.908648
