19
Iteration:  3009
 O         0.243994        -0.428728         0.478165
 C        -0.684726         0.495320         0.766144
 C        -0.368819         1.769729         1.711467
 C        -1.821056         2.059366         1.232993
 C        -2.262640         3.474809         0.620042
 C        -1.324969         3.044597        -0.619495
 C        -1.428486         1.566073        -0.174964
 O        -2.693013         1.082906         1.856050
 C        -1.929481        -0.078969         1.544688
 H         0.488982        -0.462203        -0.395400
 H        -0.155294         1.565072         2.774104
 H         0.254967         2.555079         1.113476
 H        -3.331104         3.463874         0.454330
 H        -1.905339         4.361854         0.975849
 H        -1.665925         3.284601        -1.582389
 H        -0.220177         3.553305        -0.732783
 H        -2.350886         1.134815        -0.727061
 H        -1.741661        -0.786792         2.326032
 H        -2.362950        -0.843819         0.848345
