19
Iteration:  3394charge 0 multiplicity 1
 O         0.352778        -0.297378         0.392896
 C        -0.684647         0.540966         0.718097
 C        -0.496036         1.689349         1.686481
 C        -1.872415         2.157906         1.201610
 C        -2.148100         3.463990         0.662327
 C        -1.273014         2.946003        -0.626812
 C        -1.518580         1.453703        -0.175600
 O        -2.746115         1.126739         1.884495
 C        -1.879174        -0.068104         1.556708
 H         0.218519        -1.276583         0.392703
 H        -0.421949         1.651992         2.770255
 H         0.396621         2.436209         1.460551
 H        -3.301380         3.623925         0.378185
 H        -1.513139         4.306018         1.118633
 H        -1.917567         3.288067        -1.516596
 H        -0.303917         3.281739        -0.784065
 H        -2.361364         0.864851        -0.655869
 H        -1.485213        -0.619765         2.476741
 H        -2.566763        -0.758420         1.007836
