19
Iteration:   120charge 0 multiplicity 1
 O         0.265992        -0.417640         0.275806
 C        -0.654447         0.508976         0.708279
 C        -0.428518         1.774332         1.814689
 C        -1.784034         2.121020         1.268297
 C        -2.116439         3.418243         0.541944
 C        -1.442678         2.960724        -0.707891
 C        -1.426650         1.452128        -0.192279
 O        -2.738633         1.155782         1.915412
 C        -1.917455        -0.008813         1.615811
 H         0.934726        -0.376162         0.902523
 H        -0.502093         1.476021         2.905755
 H         0.264165         2.477477         1.448991
 H        -3.211885         3.494042         0.607340
 H        -1.738852         4.263942         1.125810
 H        -2.106020         3.025603        -1.536250
 H        -0.527162         3.472128        -0.826483
 H        -2.219724         1.029840        -0.631219
 H        -1.519267        -0.456862         2.546116
 H        -2.583616        -0.669998         1.163374
