19
Iteration:   849
 O         0.291882        -0.344832         0.285666
 C        -0.679354         0.586807         0.725238
 C        -0.438662         1.846886         1.573875
 C        -1.923011         2.062072         1.175718
 C        -2.183662         3.399368         0.659773
 C        -1.262369         2.914353        -0.532647
 C        -1.562062         1.437638        -0.151422
 O        -2.670953         1.141443         1.950550
 C        -1.870298        -0.052378         1.569588
 H         0.569765        -0.936328         1.075385
 H        -0.273574         1.660594         2.597325
 H         0.373329         2.570517         1.144816
 H        -3.185086         3.505808         0.334138
 H        -1.816311         4.317702         1.194877
 H        -1.628567         3.190051        -1.590293
 H        -0.305873         3.214363        -0.260716
 H        -2.510932         1.037285        -0.542457
 H        -1.682422        -0.681877         2.442621
 H        -2.457467        -0.690500         0.938286
