19
Iteration:  4944charge 0 multiplicity 1
 O         0.262375        -0.442500         0.327013
 C        -0.674847         0.471588         0.755732
 C        -0.357079         1.791655         1.595290
 C        -1.815441         2.121592         1.227066
 C        -2.230061         3.372963         0.565975
 C        -1.409723         2.986234        -0.646787
 C        -1.504214         1.494352        -0.162817
 O        -2.705638         1.203843         1.930910
 C        -1.859041         0.045953         1.700520
 H         0.650693        -1.078800         1.080054
 H        -0.056873         1.629948         2.639368
 H         0.405722         2.376063         1.114955
 H        -3.267739         3.192235         0.385419
 H        -2.139740         4.312414         0.960046
 H        -1.818277         3.143805        -1.715291
 H        -0.369887         3.252985        -0.764935
 H        -2.217443         0.877916        -0.813970
 H        -1.442314        -0.248914         2.683652
 H        -2.464705        -0.777806         1.243104
