19
Iteration:  1131
 O         0.286245        -0.326807         0.266018
 C        -0.726430         0.456414         0.754057
 C        -0.346057         1.772231         1.670502
 C        -1.892629         2.072611         1.228831
 C        -2.164619         3.443935         0.586571
 C        -1.322827         2.986640        -0.548939
 C        -1.543235         1.453718        -0.160524
 O        -2.698769         1.172907         1.869550
 C        -1.921483        -0.103903         1.631683
 H         0.734156        -0.556771         1.089217
 H         0.014578         1.784895         2.714509
 H         0.377855         2.297378         1.140361
 H        -3.173643         3.782158         0.281491
 H        -1.786739         4.299551         1.201303
 H        -1.975554         3.199158        -1.524117
 H        -0.342127         3.348046        -0.497198
 H        -2.249047         0.898491        -0.716865
 H        -1.519598        -0.433793         2.609857
 H        -2.491498        -0.869351         0.940280
