19
Iteration:   533charge 0 multiplicity 1
 O         0.278879        -0.315401         0.234294
 C        -0.701017         0.531022         0.749348
 C        -0.400785         1.705212         1.763449
 C        -1.851367         2.150236         1.210591
 C        -2.249985         3.412839         0.617171
 C        -1.345677         2.935237        -0.660584
 C        -1.475950         1.452046        -0.148810
 O        -2.640480         1.162489         1.888885
 C        -1.935489        -0.059455         1.623502
 H         0.710489        -0.805065         1.017438
 H        -0.391106         1.548239         2.873567
 H         0.454125         2.313549         1.462856
 H        -3.274153         3.570797         0.280330
 H        -1.838350         4.355304         1.053027
 H        -1.629320         3.223876        -1.726758
 H        -0.347853         3.340267        -0.600850
 H        -2.383000         0.875414        -0.663351
 H        -1.439993        -0.356856         2.672084
 H        -2.568490        -0.873523         1.156666
