19
Iteration:  2014
 O         0.270136        -0.415054         0.311666
 C        -0.651940         0.466034         0.856426
 C        -0.393933         1.689093         1.737370
 C        -1.823093         2.087311         1.208031
 C        -2.198820         3.461585         0.592694
 C        -1.338811         3.100587        -0.653848
 C        -1.436209         1.542220        -0.105344
 O        -2.739467         1.140068         1.840805
 C        -1.950905        -0.145382         1.630273
 H         0.942143         0.188637        -0.179140
 H        -0.453850         1.554406         2.789314
 H         0.337826         2.462585         1.446327
 H        -3.260215         3.497947         0.298012
 H        -1.835549         4.285740         1.087505
 H        -1.699083         3.173559        -1.686298
 H        -0.386485         3.607375        -0.676867
 H        -2.174846         0.996655        -0.747898
 H        -1.883154        -0.701515         2.529325
 H        -2.569141        -0.821171         0.877879
