19
Iteration:  2072charge 0 multiplicity 1
 O         0.341391        -0.412331         0.428797
 C        -0.748745         0.493458         0.759798
 C        -0.492020         1.685447         1.632948
 C        -1.944809         2.070195         1.183857
 C        -2.175223         3.504988         0.634623
 C        -1.213293         3.062056        -0.556958
 C        -1.477449         1.530359        -0.238522
 O        -2.689818         1.090622         1.966533
 C        -1.943511        -0.090764         1.542737
 H         0.707589        -0.070920        -0.347526
 H        -0.211195         1.674258         2.718671
 H         0.202278         2.355396         1.180576
 H        -3.046670         3.798528         0.133824
 H        -1.993998         4.337764         1.317163
 H        -1.803343         3.267899        -1.521825
 H        -0.155810         3.314004        -0.535352
 H        -2.153298         0.966065        -0.930936
 H        -1.395368        -0.517809         2.525315
 H        -2.652509        -0.786245         1.002915
