19
Iteration:  2068charge 0 multiplicity 1
 O         0.333318        -0.424070         0.451629
 C        -0.764204         0.514110         0.762700
 C        -0.501632         1.713292         1.640727
 C        -1.945477         2.074227         1.138745
 C        -2.170984         3.496187         0.652618
 C        -1.202692         3.064252        -0.535754
 C        -1.503649         1.506417        -0.250414
 O        -2.689444         1.087859         1.993539
 C        -1.891096        -0.081142         1.525847
 H         0.640971        -0.020304        -0.479563
 H        -0.360039         1.673028         2.719252
 H         0.222248         2.288295         1.053814
 H        -3.140163         3.802515         0.137080
 H        -1.910400         4.302317         1.300717
 H        -1.603900         3.350716        -1.533998
 H        -0.144418         3.247986        -0.571414
 H        -2.227380         0.948170        -0.881166
 H        -1.489834        -0.574097         2.326971
 H        -2.549723        -0.826090         0.966186
