19
Iteration:  1679
 O         0.298764        -0.415039         0.435680
 C        -0.682182         0.536013         0.801581
 C        -0.452882         1.757809         1.654335
 C        -1.872486         2.056013         1.249873
 C        -2.179360         3.499290         0.696609
 C        -1.236333         2.974719        -0.572912
 C        -1.591266         1.548026        -0.189945
 O        -2.688899         1.077126         1.865301
 C        -1.911895        -0.077486         1.445876
 H         0.539250        -0.232287        -0.572940
 H        -0.290678         1.667381         2.716883
 H         0.328402         2.513127         1.220490
 H        -3.144756         3.719661         0.398244
 H        -1.644787         4.288255         1.267097
 H        -1.685354         3.290970        -1.475228
 H        -0.198280         3.274023        -0.559968
 H        -2.371838         1.142468        -0.733788
 H        -1.673628        -0.678706         2.414141
 H        -2.516602        -0.849230         0.852981
