19
Iteration:  4328charge 0 multiplicity 1
 O         0.353267        -0.343747         0.238984
 C        -0.714822         0.541027         0.776952
 C        -0.355233         1.748134         1.623510
 C        -1.889348         2.055396         1.186230
 C        -2.200117         3.379325         0.571588
 C        -1.315676         2.920456        -0.667581
 C        -1.553718         1.348968        -0.193259
 O        -2.724331         1.271058         2.041656
 C        -1.881901         0.008351         1.676329
 H         0.882117        -0.493984         0.956646
 H        -0.302894         1.629951         2.667310
 H         0.132004         2.540211         1.098864
 H        -3.224289         3.384833         0.335653
 H        -1.939394         4.312742         1.196773
 H        -1.826424         3.296741        -1.547680
 H        -0.268274         3.155276        -0.657301
 H        -2.437932         0.804490        -0.655686
 H        -1.445682        -0.494926         2.558702
 H        -2.715994        -0.721499         1.227922
