19
Iteration:  2699
 O         0.388392        -0.355785         0.427682
 C        -0.685643         0.461950         0.769073
 C        -0.433896         1.712754         1.701150
 C        -1.862914         2.081052         1.229795
 C        -2.146797         3.489628         0.637556
 C        -1.356414         3.061013        -0.601199
 C        -1.487217         1.576843        -0.185934
 O        -2.726685         1.099159         1.796946
 C        -1.933286        -0.145792         1.574577
 H         0.068854        -1.225965        -0.084370
 H        -0.366147         1.460170         2.714590
 H         0.454149         2.370867         1.383859
 H        -3.221416         3.840147         0.388149
 H        -1.794455         4.361861         1.057224
 H        -1.685000         3.420999        -1.562132
 H        -0.431509         3.581660        -0.624653
 H        -2.378463         1.051154        -0.540836
 H        -1.698867        -0.548737         2.470988
 H        -2.669495        -0.788316         1.065186
