19
Iteration:  3293charge 0 multiplicity 1
 O         0.210923        -0.418678         0.396406
 C        -0.679449         0.553025         0.739671
 C        -0.368967         1.762533         1.671137
 C        -1.848237         2.093619         1.188813
 C        -2.191765         3.443529         0.612331
 C        -1.318664         2.992142        -0.602364
 C        -1.531174         1.511253        -0.140946
 O        -2.690352         1.108525         1.853872
 C        -1.898008        -0.037620         1.611104
 H         1.074704        -0.240759         0.591098
 H        -0.223065         1.488992         2.753886
 H         0.360915         2.388412         1.188302
 H        -3.299457         3.157253         0.266241
 H        -2.020438         4.374715         1.204817
 H        -1.532789         2.895070        -1.578140
 H        -0.272460         3.401850        -0.585421
 H        -2.330263         1.093900        -0.852730
 H        -1.615467        -0.456327         2.536499
 H        -2.456675        -0.695236         0.875762
