19
Iteration:  4456charge 0 multiplicity 1
 O         0.209656        -0.329363         0.283763
 C        -0.658856         0.588303         0.811127
 C        -0.439898         1.803774         1.628958
 C        -1.877381         2.061021         1.236052
 C        -2.115780         3.451604         0.545083
 C        -1.344308         2.861742        -0.648716
 C        -1.616590         1.368308        -0.079295
 O        -2.640252         1.184336         2.012814
 C        -1.842645        -0.045064         1.569516
 H         1.071961        -0.316015         0.753000
 H        -0.179795         1.637292         2.661866
 H         0.281724         2.536287         1.224710
 H        -3.174258         3.523116         0.109894
 H        -1.867601         4.420176         0.924062
 H        -1.741517         2.784853        -1.724213
 H        -0.372525         3.225208        -0.877857
 H        -2.382703         0.903016        -0.639085
 H        -1.612851        -0.555477         2.517607
 H        -2.407211        -0.645369         0.918254
