19
Iteration:    65charge 0 multiplicity 1
 O         0.264999        -0.394669         0.351195
 C        -0.722012         0.534071         0.711116
 C        -0.534407         1.837809         1.624075
 C        -1.915632         2.089808         1.218717
 C        -2.136405         3.450443         0.568931
 C        -1.207000         2.994892        -0.668723
 C        -1.601650         1.471090        -0.201593
 O        -2.602860         1.110894         2.034471
 C        -1.877364        -0.109189         1.587190
 H         0.642110        -0.742587         1.095808
 H        -0.375733         1.728618         2.740859
 H         0.189798         2.548759         1.370476
 H        -3.184575         3.369341         0.211396
 H        -2.080225         4.356840         1.177132
 H        -1.470797         3.414899        -1.590813
 H        -0.148491         3.227552        -0.664795
 H        -2.235678         1.009104        -0.852463
 H        -1.408560        -0.615735         2.422210
 H        -2.604818        -0.717088         1.201701
