19
Iteration:  4799charge 0 multiplicity 1
 O         0.236449        -0.423749         0.319103
 C        -0.679092         0.567224         0.766251
 C        -0.391005         1.892988         1.632330
 C        -1.825506         2.079356         1.178138
 C        -2.297609         3.450926         0.563566
 C        -1.322138         2.923869        -0.629263
 C        -1.578312         1.392858        -0.141296
 O        -2.531500         1.155885         2.043428
 C        -1.935085         0.002148         1.574930
 H         0.595925        -0.812870         1.259146
 H         0.052517         1.766551         2.642719
 H         0.428657         2.411394         1.064227
 H        -3.298498         3.271135         0.190551
 H        -2.273415         4.406387         0.975332
 H        -1.667838         3.076001        -1.727427
 H        -0.139353         3.091745        -0.702769
 H        -2.464879         0.998878        -0.811334
 H        -1.580976        -0.638100         2.376026
 H        -2.600201        -0.725943         0.961746
