19
Iteration:  4680charge 0 multiplicity 1
 O         0.316000        -0.369060         0.313075
 C        -0.711464         0.549748         0.763428
 C        -0.318523         1.748840         1.660808
 C        -1.812884         2.109819         1.172243
 C        -2.291563         3.403118         0.609234
 C        -1.331607         2.921610        -0.711051
 C        -1.615523         1.471746        -0.207301
 O        -2.613394         1.191087         1.999863
 C        -1.965081        -0.009614         1.691163
 H         1.026431        -0.537746         0.985646
 H        -0.190178         1.462764         2.713851
 H         0.503767         2.315469         1.187876
 H        -3.340970         3.414406         0.327805
 H        -1.919311         4.429044         0.872259
 H        -1.755941         2.945924        -1.757320
 H        -0.245803         3.220085        -0.553152
 H        -2.373897         0.844697        -0.778621
 H        -1.771386        -0.602530         2.563656
 H        -2.630311        -0.714153         1.049848
