19
Iteration:  1334
 O         0.215237        -0.368003         0.264266
 C        -0.655193         0.506412         0.851495
 C        -0.445941         1.782793         1.654020
 C        -1.913864         2.139186         1.216684
 C        -2.127715         3.509349         0.528249
 C        -1.288165         2.967567        -0.566531
 C        -1.566237         1.477076        -0.110006
 O        -2.685085         1.062893         1.926979
 C        -1.869412        -0.068546         1.576400
 H         0.916750        -0.478366         0.882700
 H        -0.188469         1.522289         2.717016
 H         0.298579         2.409155         1.190838
 H        -3.142525         3.494398         0.213553
 H        -1.908963         4.358637         1.044148
 H        -1.619588         3.227499        -1.506473
 H        -0.162223         3.312052        -0.604985
 H        -2.402489         1.065541        -0.773094
 H        -1.534306        -0.716566         2.478410
 H        -2.363246        -0.811468         0.854380
