19
Iteration:  2609
 O         0.250981        -0.427360         0.409114
 C        -0.663696         0.601910         0.783767
 C        -0.353676         1.729244         1.746360
 C        -1.869863         2.044944         1.226355
 C        -2.206931         3.400613         0.662724
 C        -1.346362         2.989051        -0.591373
 C        -1.417993         1.435779        -0.226063
 O        -2.715488         1.141339         1.830017
 C        -1.985621         0.000078         1.503672
 H         0.970002         0.060567        -0.099384
 H        -0.362395         1.519113         2.841760
 H         0.444975         2.387450         1.467217
 H        -3.286850         3.501710         0.543928
 H        -1.839019         4.329645         1.182232
 H        -1.657924         3.377807        -1.512667
 H        -0.293123         3.474152        -0.689965
 H        -2.380131         1.018593        -0.680543
 H        -1.600366        -0.453181         2.317004
 H        -2.453161        -0.798516         0.901467
