19
Iteration:  2066charge 0 multiplicity 1
 O         0.327182        -0.423476         0.454937
 C        -0.763556         0.526133         0.758556
 C        -0.506539         1.733377         1.643737
 C        -1.947226         2.073969         1.119676
 C        -2.168955         3.488002         0.654878
 C        -1.205211         3.059752        -0.530898
 C        -1.521375         1.488313        -0.252599
 O        -2.688088         1.087397         2.001512
 C        -1.875711        -0.080081         1.512889
 H         0.576436        -0.064642        -0.415274
 H        -0.433269         1.659273         2.716370
 H         0.280829         2.292908         1.015175
 H        -3.184439         3.761107         0.169845
 H        -1.827764         4.346891         1.350444
 H        -1.477825         3.383657        -1.500939
 H        -0.083664         3.258362        -0.571039
 H        -2.255675         0.983815        -0.852848
 H        -1.516031        -0.659319         2.310041
 H        -2.460040        -0.796890         0.973429
