19
Iteration:  2536
 O         0.294227        -0.373571         0.364019
 C        -0.709142         0.535471         0.718412
 C        -0.478447         1.780014         1.723629
 C        -1.878511         2.062775         1.190051
 C        -2.153254         3.414662         0.648924
 C        -1.225335         2.928599        -0.526831
 C        -1.535301         1.462127        -0.142267
 O        -2.704961         1.135564         1.886545
 C        -1.935659        -0.019624         1.504229
 H         0.891620         0.205791         0.014818
 H        -0.376439         1.500086         2.739586
 H         0.392357         2.393605         1.337439
 H        -3.137795         3.621224         0.116902
 H        -2.041908         4.154461         1.372304
 H        -1.552594         3.209207        -1.493243
 H        -0.255570         3.245735        -0.632717
 H        -2.281649         1.034924        -0.713260
 H        -1.524302        -0.631619         2.404238
 H        -2.573175        -0.630227         0.815940
