19
Iteration:   448
 O         0.306963        -0.353533         0.295979
 C        -0.676867         0.572644         0.726110
 C        -0.416692         1.713311         1.592981
 C        -1.873655         2.106138         1.202759
 C        -2.226157         3.464975         0.590273
 C        -1.261900         2.955188        -0.608279
 C        -1.510768         1.512434        -0.128558
 O        -2.722615         1.112199         1.946923
 C        -1.922708        -0.084395         1.659799
 H         0.645977        -0.706747         1.125743
 H        -0.199788         1.574938         2.636185
 H         0.381948         2.391802         1.024381
 H        -3.276459         3.480684         0.368172
 H        -1.857668         4.452009         0.994079
 H        -1.718943         3.015239        -1.688649
 H        -0.323197         3.361191        -0.308392
 H        -2.360999         1.052066        -0.796735
 H        -1.434569        -0.572416         2.567672
 H        -2.558262        -0.801596         1.127148
