19
Iteration:  1218
 O         0.264143        -0.339948         0.194182
 C        -0.660768         0.537622         0.747879
 C        -0.375686         1.747145         1.735530
 C        -1.804632         2.084544         1.192274
 C        -2.212104         3.402436         0.556895
 C        -1.331346         2.974356        -0.560190
 C        -1.425786         1.436770        -0.161147
 O        -2.749085         1.209620         1.929128
 C        -1.940260        -0.062514         1.664076
 H         0.664166        -0.921677         0.774767
 H        -0.417908         1.411737         2.800356
 H         0.332369         2.427314         1.442476
 H        -3.334724         3.215456         0.304139
 H        -1.986508         4.412918         1.092531
 H        -1.693163         3.241130        -1.671284
 H        -0.390769         3.484278        -0.552636
 H        -2.147330         0.924099        -0.745682
 H        -1.728802        -0.393595         2.690269
 H        -2.545808        -0.887359         1.141970
