19
Iteration:  2981
 O         0.367613        -0.375474         0.475433
 C        -0.646566         0.543127         0.753066
 C        -0.446462         1.770456         1.718016
 C        -1.911219         2.048248         1.187807
 C        -2.125830         3.458110         0.679931
 C        -1.331237         2.981907        -0.610122
 C        -1.559569         1.490716        -0.215120
 O        -2.717976         1.159823         1.899374
 C        -1.891939        -0.090702         1.475761
 H         0.165412        -0.793184        -0.311210
 H        -0.401939         1.477100         2.771604
 H         0.317801         2.404137         1.425444
 H        -3.198857         3.660346         0.446027
 H        -1.767457         4.509490         1.176012
 H        -1.817875         3.465391        -1.537455
 H        -0.351083         3.145596        -0.742989
 H        -2.272543         0.962501        -0.803673
 H        -1.707678        -0.788854         2.347602
 H        -2.417203        -0.745069         0.729551
