19
Iteration:   882
 O         0.345000        -0.293232         0.305160
 C        -0.744401         0.529900         0.732829
 C        -0.471158         1.715553         1.622063
 C        -1.876626         2.074983         1.189632
 C        -2.157777         3.451091         0.601091
 C        -1.359555         3.007190        -0.655577
 C        -1.455110         1.522097        -0.199460
 O        -2.710715         1.128334         2.035641
 C        -1.881493        -0.141058         1.595034
 H         0.410601        -0.986924         1.073251
 H        -0.307837         1.445274         2.633999
 H         0.421986         2.337461         1.239209
 H        -3.185072         3.663523         0.599144
 H        -1.624632         4.279487         1.143500
 H        -1.624507         3.107470        -1.785932
 H        -0.462886         3.448521        -0.644035
 H        -2.313422         0.957134        -0.584175
 H        -1.501144        -0.566185         2.480437
 H        -2.624052        -0.692174         1.121345
