19
Iteration:  4181charge 0 multiplicity 1
 O         0.322534        -0.288027         0.290662
 C        -0.694940         0.570041         0.773335
 C        -0.478969         1.822103         1.600132
 C        -1.914075         2.109344         1.216116
 C        -2.106436         3.422498         0.574329
 C        -1.290765         2.914751        -0.617832
 C        -1.555112         1.375763        -0.154147
 O        -2.694642         1.128349         1.964725
 C        -1.877567        -0.083202         1.665544
 H         0.009390        -1.231031         0.638795
 H        -0.102025         1.904134         2.623603
 H         0.280240         2.496308         1.246349
 H        -3.202683         3.562892         0.345715
 H        -1.864278         4.307985         1.081823
 H        -1.849833         3.189909        -1.482936
 H        -0.249848         3.342565        -0.751120
 H        -2.141585         0.800922        -0.803676
 H        -1.336351        -0.398817         2.601331
 H        -2.589233        -0.725049         1.084707
