19
Iteration:  1997charge 0 multiplicity 1
 O         0.306760        -0.423115         0.329593
 C        -0.703279         0.517619         0.730122
 C        -0.416611         1.736822         1.836446
 C        -1.833887         2.093174         1.195277
 C        -2.224628         3.439067         0.631811
 C        -1.330036         2.996551        -0.584921
 C        -1.435136         1.471853        -0.221361
 O        -2.666011         1.147268         1.837321
 C        -2.027140        -0.041762         1.550840
 H         1.255436         0.028575         0.192092
 H        -0.253549         1.415170         2.935830
 H         0.423052         2.231033         1.360656
 H        -3.295980         3.554038         0.441631
 H        -2.088891         4.435169         1.274357
 H        -1.812965         3.262250        -1.595074
 H        -0.331017         3.493707        -0.665830
 H        -2.307595         1.000895        -0.678942
 H        -1.529130        -0.534006         2.515268
 H        -2.679817        -0.770455         1.246874
