19
Iteration:  1716
 O         0.302815        -0.383755         0.356905
 C        -0.644695         0.584198         0.759911
 C        -0.450896         1.685211         1.777873
 C        -1.861830         2.084188         1.209096
 C        -2.185405         3.425250         0.676304
 C        -1.271664         3.002124        -0.584127
 C        -1.461133         1.520352        -0.194366
 O        -2.703949         1.135751         1.834338
 C        -1.924628        -0.067850         1.545090
 H        -0.294453        -0.796563        -0.346653
 H        -0.427291         1.421725         2.989170
 H         0.293235         2.431718         1.624327
 H        -3.293077         3.662189         0.580222
 H        -1.988441         4.380163         1.232347
 H        -1.882867         3.178257        -1.567032
 H        -0.231743         3.386584        -0.733313
 H        -2.202507         0.984284        -0.909892
 H        -1.501125        -0.532974         2.401168
 H        -2.458686        -0.681069         0.755872
