19
Iteration:  2544
 O         0.274783        -0.382141         0.411237
 C        -0.740636         0.555827         0.725675
 C        -0.488660         1.747039         1.677017
 C        -1.935777         2.064605         1.195439
 C        -2.155054         3.419179         0.645405
 C        -1.233778         2.974537        -0.541418
 C        -1.527308         1.497448        -0.203935
 O        -2.654319         1.133774         1.918178
 C        -1.875848        -0.066424         1.472210
 H         1.040789         0.068859         0.214096
 H        -0.392619         1.468558         2.781968
 H         0.309674         2.390464         1.428578
 H        -3.136287         3.576843         0.172268
 H        -1.840549         4.309748         1.305149
 H        -1.680014         3.248348        -1.456585
 H        -0.100099         3.261640        -0.536291
 H        -2.385109         1.000297        -0.763728
 H        -1.658850        -0.564656         2.389453
 H        -2.618145        -0.828326         0.912302
