19
Iteration:  3343
 O         0.282177        -0.358238         0.439530
 C        -0.674195         0.538907         0.773413
 C        -0.471906         1.783992         1.662773
 C        -1.924085         2.147698         1.220666
 C        -2.183661         3.424015         0.618268
 C        -1.238638         2.914305        -0.548143
 C        -1.514586         1.432874        -0.228834
 O        -2.665493         1.147400         1.933812
 C        -1.902180        -0.076679         1.516227
 H         0.206201        -0.457473        -0.619648
 H        -0.308889         1.534869         2.732633
 H         0.201327         2.515073         1.283943
 H        -3.031543         3.458775         0.083973
 H        -1.885111         4.216839         1.267199
 H        -1.618625         3.181696        -1.601592
 H        -0.229569         3.373822        -0.511595
 H        -2.259126         0.988307        -0.842318
 H        -1.404250        -0.508128         2.440242
 H        -2.641325        -0.644812         0.993051
