19
Iteration:  1377charge 0 multiplicity 1
 O         0.290785        -0.353258         0.260013
 C        -0.699345         0.544002         0.771613
 C        -0.406306         1.692376         1.642480
 C        -1.890216         2.065296         1.205384
 C        -2.215812         3.446170         0.640142
 C        -1.292342         3.030379        -0.560672
 C        -1.492512         1.402588        -0.249976
 O        -2.677995         1.158317         1.970224
 C        -1.916592         0.001288         1.630120
 H         0.644304        -0.888599         1.062125
 H        -0.407634         1.635308         2.690838
 H         0.282117         2.357122         1.149116
 H        -3.148304         3.453919         0.182941
 H        -1.918001         4.328050         1.111125
 H        -1.599706         3.297609        -1.505111
 H        -0.214913         3.497286        -0.638784
 H        -2.235016         0.875988        -0.935779
 H        -1.659735        -0.644075         2.533491
 H        -2.606044        -0.708400         1.076269
