19
Iteration:  4233
 O         0.349482        -0.313423         0.424353
 C        -0.674867         0.482243         0.767617
 C        -0.341286         1.767911         1.602426
 C        -1.848822         2.102701         1.218461
 C        -2.222303         3.395999         0.557854
 C        -1.344247         2.930587        -0.666378
 C        -1.533924         1.503828        -0.174637
 O        -2.676220         1.139631         1.962482
 C        -1.955950        -0.026132         1.655258
 H        -0.078683        -1.107744        -0.118028
 H         0.040153         1.600572         2.697742
 H         0.291257         2.508968         1.047629
 H        -3.411426         3.438095         0.196172
 H        -1.960650         4.331530         1.134773
 H        -1.787696         3.117607        -1.638439
 H        -0.287446         3.451701        -0.603905
 H        -2.472401         1.104158        -0.665211
 H        -1.531885        -0.598981         2.527031
 H        -2.525475        -0.679944         1.074660
