19
Iteration:  1497
 O         0.216809        -0.420522         0.250856
 C        -0.682446         0.548412         0.782646
 C        -0.420801         1.729717         1.784145
 C        -1.838956         2.078816         1.265755
 C        -2.182657         3.469971         0.622847
 C        -1.319127         2.959768        -0.656369
 C        -1.488524         1.480367        -0.175585
 O        -2.695396         1.171911         1.922837
 C        -1.867785        -0.060892         1.556964
 H         1.112472        -0.395623         0.470765
 H        -0.546087         1.599537         2.856515
 H         0.268181         2.356455         1.347095
 H        -3.247859         3.403832         0.284871
 H        -1.937086         4.470246         1.136413
 H        -1.869043         3.205514        -1.554525
 H        -0.307418         3.478973        -0.869551
 H        -2.324563         0.922403        -0.716053
 H        -1.466145        -0.431443         2.480643
 H        -2.439412        -0.840469         0.980398
