19
Iteration:  4693
 O         0.291199        -0.304697         0.309758
 C        -0.723856         0.462688         0.773518
 C        -0.434449         1.725181         1.618838
 C        -1.864232         2.084906         1.174709
 C        -2.227353         3.448753         0.547123
 C        -1.366705         2.883845        -0.645800
 C        -1.550479         1.363633        -0.156416
 O        -2.564700         1.262257         1.993425
 C        -1.903203        -0.044472         1.608405
 H         0.952932        -0.423987         1.084511
 H        -0.384271         1.723292         2.713453
 H         0.462982         2.268050         1.189062
 H        -3.346348         3.611304         0.336112
 H        -1.848896         4.295564         1.306548
 H        -1.662407         3.230687        -1.690938
 H        -0.381184         3.217991        -0.594982
 H        -2.483285         1.018570        -0.572288
 H        -1.422960        -0.416069         2.525496
 H        -2.681802        -0.672734         1.162604
