19
Iteration:   253charge 0 multiplicity 1
 O         0.282654        -0.351815         0.302277
 C        -0.741853         0.513537         0.724644
 C        -0.448273         1.802511         1.668304
 C        -1.903062         2.046314         1.146118
 C        -2.209780         3.483577         0.625340
 C        -1.266852         2.978871        -0.608075
 C        -1.550091         1.436874        -0.197540
 O        -2.601602         1.156325         1.951376
 C        -1.896538        -0.108388         1.642521
 H         0.514812        -0.760777         1.075830
 H        -0.276289         1.689304         2.679475
 H         0.443610         2.552448         1.399471
 H        -3.206183         3.728679         0.259238
 H        -1.866644         4.351749         1.251483
 H        -1.643237         3.123494        -1.684109
 H        -0.273751         3.231833        -0.606384
 H        -2.297958         1.003198        -0.734722
 H        -1.601877        -0.619681         2.650551
 H        -2.507742        -0.744111         0.990505
