19
Iteration:  3972charge 0 multiplicity 1
 O         0.298486        -0.351694         0.332597
 C        -0.633975         0.539281         0.789620
 C        -0.368928         1.790859         1.657449
 C        -1.796032         2.074684         1.178804
 C        -2.296361         3.412109         0.635918
 C        -1.311373         3.001847        -0.643640
 C        -1.477860         1.424898        -0.142082
 O        -2.699572         1.143352         1.908864
 C        -1.978830        -0.034352         1.645910
 H        -0.154015        -1.082465         0.045811
 H        -0.096146         1.801993         2.667811
 H         0.439898         2.335889         1.154011
 H        -3.350632         3.402440         0.274644
 H        -2.106501         4.268243         1.150518
 H        -1.381295         3.348897        -1.649003
 H        -0.293767         3.396442        -0.464939
 H        -2.313101         1.022360        -0.642587
 H        -1.429814        -0.571604         2.520488
 H        -2.550325        -0.829678         0.980275
