19
Iteration:   324charge 0 multiplicity 1
 O         0.219304        -0.439217         0.239635
 C        -0.672471         0.543497         0.785898
 C        -0.482210         1.842203         1.789452
 C        -1.859372         2.120664         1.236103
 C        -2.139316         3.461369         0.536352
 C        -1.354493         2.987589        -0.687648
 C        -1.462829         1.450199        -0.132811
 O        -2.652387         1.134019         1.932803
 C        -1.874204        -0.160420         1.604282
 H         0.845545        -0.570369         0.879535
 H        -0.125631         1.878674         2.951517
 H         0.247619         2.573731         1.411511
 H        -3.230539         3.653682         0.419018
 H        -1.737933         4.330137         1.040089
 H        -1.988492         3.096117        -1.588463
 H        -0.392182         3.696206        -0.848012
 H        -2.414595         0.911651        -0.688404
 H        -1.653248        -0.601397         2.531658
 H        -2.498354        -0.764825         0.909211
