19
Iteration:  1514charge 0 multiplicity 1
 O         0.210274        -0.486755         0.295096
 C        -0.673577         0.543193         0.779281
 C        -0.437416         1.834963         1.735644
 C        -1.881675         2.128036         1.145407
 C        -2.163197         3.516057         0.609702
 C        -1.371330         3.010888        -0.627421
 C        -1.446516         1.480480        -0.126331
 O        -2.633428         1.081055         1.937747
 C        -1.920233        -0.101964         1.584270
 H         0.995900        -0.040639         0.216056
 H        -0.371982         1.508537         2.790946
 H         0.469109         2.634604         1.610276
 H        -3.181814         3.696945         0.370490
 H        -1.679572         4.286169         1.199030
 H        -1.887058         2.973923        -1.615063
 H        -0.398605         3.384433        -0.754818
 H        -2.162438         1.013351        -0.727879
 H        -1.745060        -0.880896         2.394436
 H        -2.559441        -0.762160         0.945661
