19
Iteration:  4316charge 0 multiplicity 1
 O         0.279844        -0.358433         0.295856
 C        -0.679291         0.506237         0.696928
 C        -0.411595         1.848989         1.593097
 C        -1.893919         2.076738         1.203534
 C        -2.211188         3.421698         0.613980
 C        -1.304763         2.835931        -0.665040
 C        -1.613268         1.434498        -0.132405
 O        -2.650745         1.208240         1.980813
 C        -1.879956        -0.041310         1.677187
 H         1.081239        -0.284322         0.966351
 H        -0.163844         1.703045         2.598467
 H         0.409060         2.466108         1.251125
 H        -3.252390         3.563652         0.314805
 H        -1.852897         4.317195         1.254387
 H        -1.556386         2.981102        -1.743584
 H        -0.345406         3.193554        -0.548258
 H        -2.367076         0.960471        -0.782749
 H        -1.530882        -0.376686         2.644176
 H        -2.579767        -0.846751         1.128494
