19
Iteration:  4261charge 0 multiplicity 1
 O         0.305501        -0.427292         0.437736
 C        -0.643786         0.477832         0.757285
 C        -0.396063         1.812672         1.674725
 C        -1.851643         2.101100         1.169179
 C        -2.219728         3.442665         0.603982
 C        -1.427153         2.926519        -0.597899
 C        -1.515150         1.364826        -0.203632
 O        -2.636352         1.226971         1.921726
 C        -1.875708         0.036599         1.616828
 H         0.357226        -0.322360        -0.608611
 H        -0.352639         1.627925         2.693727
 H         0.304747         2.500957         1.233886
 H        -3.206898         3.450494         0.304749
 H        -1.883775         4.320412         1.177336
 H        -1.971138         3.105088        -1.558764
 H        -0.475250         3.324708        -0.640069
 H        -2.312498         0.813730        -0.721305
 H        -1.553199        -0.522894         2.484972
 H        -2.472207        -0.771483         1.007648
