19
Iteration:  1978
 O         0.232702        -0.427954         0.416769
 C        -0.667029         0.595505         0.716990
 C        -0.433571         1.713495         1.617709
 C        -1.919838         2.035947         1.229780
 C        -2.158073         3.399041         0.634956
 C        -1.281094         2.998643        -0.574249
 C        -1.535700         1.489522        -0.167279
 O        -2.726062         1.170508         1.913475
 C        -1.837470        -0.063312         1.504009
 H         1.119312         0.036036         0.465011
 H        -0.320555         1.408869         2.685227
 H         0.319200         2.610892         1.448692
 H        -3.279401         3.541870         0.458103
 H        -1.993799         4.408376         1.227582
 H        -1.669616         3.275896        -1.519356
 H        -0.129844         3.215935        -0.433414
 H        -2.285825         1.100905        -0.823531
 H        -1.623615        -0.595546         2.407183
 H        -2.271306        -0.648871         0.619568
