19
Iteration:  2546charge 0 multiplicity 1
 O         0.266233        -0.383466         0.423623
 C        -0.737597         0.566218         0.731683
 C        -0.485938         1.726191         1.671254
 C        -1.950890         2.064862         1.199634
 C        -2.151795         3.440924         0.650579
 C        -1.221209         2.996136        -0.559524
 C        -1.533873         1.497344        -0.230373
 O        -2.646177         1.128451         1.927564
 C        -1.876133        -0.090491         1.467761
 H         1.111510         0.003457         0.269595
 H        -0.421771         1.499019         2.728221
 H         0.322262         2.459020         1.418373
 H        -3.214487         3.556178         0.231710
 H        -1.798470         4.301653         1.193242
 H        -1.718406         3.244543        -1.428486
 H        -0.183285         3.242308        -0.455379
 H        -2.330140         1.057313        -0.764461
 H        -1.627263        -0.595135         2.460436
 H        -2.590232        -0.837999         0.917608
