19
Iteration:  1990charge 0 multiplicity 1
 O         0.284535        -0.421664         0.362832
 C        -0.690468         0.540147         0.714135
 C        -0.427217         1.714682         1.746122
 C        -1.820080         2.106885         1.220782
 C        -2.214615         3.424948         0.680927
 C        -1.323484         2.961960        -0.572793
 C        -1.485008         1.480172        -0.219344
 O        -2.729941         1.178090         1.872219
 C        -1.913988        -0.030642         1.507895
 H         1.221300         0.003781         0.340937
 H        -0.478766         1.465875         2.790227
 H         0.488759         2.384980         1.437805
 H        -3.268225         3.317601         0.287956
 H        -1.917873         4.333045         1.244493
 H        -1.697566         3.176526        -1.526774
 H        -0.285737         3.480929        -0.584005
 H        -2.235970         0.922236        -0.775238
 H        -1.508716        -0.504286         2.340212
 H        -2.712341        -0.795797         1.110510
