19
Iteration:  2376charge 0 multiplicity 1
 O         0.306892        -0.295833         0.336212
 C        -0.715805         0.538271         0.760780
 C        -0.454832         1.726701         1.675295
 C        -1.909311         2.059191         1.171742
 C        -2.213151         3.408774         0.680759
 C        -1.134568         2.977911        -0.554760
 C        -1.504778         1.470479        -0.158221
 O        -2.734239         1.128889         1.897305
 C        -1.892473        -0.083815         1.591849
 H        -0.036830        -0.702380        -0.447508
 H        -0.354577         1.737004         2.711654
 H         0.379791         2.470580         1.349754
 H        -3.231648         3.699538         0.300509
 H        -2.041344         4.372419         1.178226
 H        -1.257264         3.331600        -1.534631
 H        -0.103623         3.263900        -0.340320
 H        -2.359932         1.096546        -0.839242
 H        -1.720814        -0.737600         2.441441
 H        -2.550668        -0.763848         0.801469
