19
Iteration:   814
 O         0.190767        -0.370503         0.200739
 C        -0.603448         0.573798         0.790603
 C        -0.455712         1.737632         1.767503
 C        -1.847863         2.091747         1.202276
 C        -2.184725         3.432620         0.551112
 C        -1.369546         2.974038        -0.651258
 C        -1.439250         1.490360        -0.089185
 O        -2.655519         1.107945         1.928045
 C        -1.886662        -0.081981         1.641303
 H         0.819520        -0.670006         0.918591
 H        -0.503599         1.431599         2.835561
 H         0.492831         2.385291         1.614185
 H        -3.241116         3.460095         0.243224
 H        -2.025724         4.444622         0.994481
 H        -1.845881         3.137293        -1.654296
 H        -0.470165         3.669923        -0.940039
 H        -2.466386         1.153555        -0.654323
 H        -1.501947        -0.525390         2.513145
 H        -2.390098        -0.639814         0.878147
