19
Iteration:  2861
 O         0.377400        -0.430887         0.589081
 C        -0.715656         0.526372         0.697698
 C        -0.427762         1.679885         1.576304
 C        -1.823469         2.146732         1.234094
 C        -2.224163         3.476030         0.691255
 C        -1.315050         3.031244        -0.537567
 C        -1.542387         1.492154        -0.188947
 O        -2.688538         1.128382         1.848087
 C        -1.914484        -0.044479         1.421250
 H         0.429836        -0.721361        -0.451016
 H        -0.311733         1.499055         2.631324
 H         0.411833         2.252628         1.223036
 H        -3.226821         3.601185         0.431283
 H        -2.093935         4.336787         1.291959
 H        -1.718059         3.366238        -1.539191
 H        -0.283102         3.274213        -0.515168
 H        -2.404806         0.928557        -0.655118
 H        -1.652910        -0.461755         2.430597
 H        -2.626789        -0.663449         0.798355
