19
Iteration:  3450
 O         0.325318        -0.352168         0.437495
 C        -0.713655         0.576488         0.712056
 C        -0.383554         1.715763         1.694542
 C        -1.865834         2.081832         1.158411
 C        -2.249401         3.346052         0.595305
 C        -1.242454         3.021461        -0.584509
 C        -1.515877         1.558427        -0.223728
 O        -2.644396         1.132241         1.899112
 C        -1.955911        -0.051422         1.605383
 H        -0.024819        -1.246075        -0.061017
 H        -0.285493         1.477543         2.767626
 H         0.397780         2.469822         1.449179
 H        -3.396658         3.389095         0.492273
 H        -2.063304         4.405043         1.051801
 H        -1.622488         3.238139        -1.652720
 H        -0.280930         3.303516        -0.340640
 H        -2.300661         1.127180        -0.851259
 H        -1.627189        -0.571815         2.567042
 H        -2.579076        -0.784082         1.064846
