19
Iteration:  2970
 O         0.412208        -0.298879         0.430643
 C        -0.681282         0.537591         0.755599
 C        -0.475003         1.744416         1.710963
 C        -1.879903         2.039208         1.164872
 C        -2.100361         3.449796         0.686804
 C        -1.291807         2.969635        -0.598542
 C        -1.585866         1.443575        -0.276263
 O        -2.707507         1.138239         1.908203
 C        -1.934663        -0.061874         1.525199
 H         0.083401        -1.002635        -0.243879
 H        -0.495749         1.602276         2.789010
 H         0.085629         2.569174         1.496351
 H        -3.162948         3.638092         0.441620
 H        -1.594319         4.228456         1.461132
 H        -1.704343         3.195238        -1.639734
 H        -0.337273         3.264825        -0.474186
 H        -2.417767         1.059584        -0.808884
 H        -1.740070        -0.619568         2.489638
 H        -2.612322        -0.563678         0.807411
