19
Iteration:  1826
 O         0.330577        -0.351165         0.400530
 C        -0.678025         0.458271         0.830810
 C        -0.392037         1.713434         1.659686
 C        -1.852090         2.111725         1.293634
 C        -2.159301         3.493127         0.649083
 C        -1.340617         3.041073        -0.569217
 C        -1.466977         1.502369        -0.163669
 O        -2.703983         1.108996         1.773644
 C        -1.999997        -0.124148         1.576761
 H         0.280767        -0.527972        -0.481273
 H        -0.111581         1.450834         2.739349
 H         0.216603         2.453396         1.111401
 H        -3.246816         3.474638         0.281130
 H        -1.796664         4.377193         1.117777
 H        -1.652867         3.398945        -1.547500
 H        -0.260632         3.391092        -0.577436
 H        -2.322698         1.109745        -0.793481
 H        -1.841502        -0.515905         2.574571
 H        -2.633628        -0.821937         0.832260
