19
Iteration:   619
 O         0.358665        -0.375757         0.245625
 C        -0.720205         0.555578         0.734429
 C        -0.353590         1.784204         1.763179
 C        -1.823883         2.014853         1.244850
 C        -2.163181         3.448723         0.622609
 C        -1.381835         2.918135        -0.650175
 C        -1.485850         1.477204        -0.176221
 O        -2.769910         1.220728         1.884183
 C        -1.920120        -0.059123         1.595779
 H         0.740116        -0.789036         0.966858
 H        -0.242524         1.573587         2.884342
 H         0.291719         2.602143         1.531384
 H        -3.241567         3.483709         0.420690
 H        -1.742565         4.369315         1.087044
 H        -2.077121         3.041579        -1.517902
 H        -0.424127         3.368607        -0.863333
 H        -2.221539         0.955074        -0.677988
 H        -1.789718        -0.623267         2.581691
 H        -2.542212        -0.904306         1.247926
