19
Iteration:  2603
 O         0.234985        -0.441060         0.426455
 C        -0.678940         0.583377         0.756379
 C        -0.357940         1.749483         1.732579
 C        -1.850398         2.089026         1.196494
 C        -2.184981         3.374640         0.712892
 C        -1.369682         2.990372        -0.584325
 C        -1.412557         1.447214        -0.226810
 O        -2.729729         1.141299         1.808912
 C        -1.948609        -0.004812         1.503871
 H         1.101499         0.047748         0.087114
 H        -0.295623         1.538677         2.780783
 H         0.434029         2.506126         1.387002
 H        -3.318511         3.523211         0.540504
 H        -1.917409         4.248755         1.271309
 H        -1.735329         3.373212        -1.604637
 H        -0.345718         3.265371        -0.584917
 H        -2.257168         0.996527        -0.664611
 H        -1.609679        -0.541890         2.529948
 H        -2.523098        -0.652120         0.759461
