19
Iteration:  3947charge 0 multiplicity 1
 O         0.284647        -0.341968         0.325840
 C        -0.680182         0.584465         0.758844
 C        -0.455041         1.801880         1.663372
 C        -1.932000         2.092577         1.247808
 C        -2.158973         3.439212         0.563528
 C        -1.266538         2.950889        -0.598147
 C        -1.551821         1.398389        -0.131955
 O        -2.688126         1.123821         1.977700
 C        -1.828322        -0.030712         1.547065
 H        -0.032186        -1.274463         0.387158
 H        -0.323552         1.460066         2.728950
 H         0.361274         2.554659         1.541555
 H        -3.074985         3.588553         0.061198
 H        -1.956399         4.368814         1.115221
 H        -1.864297         3.313099        -1.563868
 H        -0.258310         3.309709        -0.811392
 H        -2.231816         0.959583        -0.828074
 H        -1.315382        -0.600276         2.403324
 H        -2.388626        -0.757811         0.869100
