19
Iteration:  2916charge 0 multiplicity 1
 O         0.292794        -0.321438         0.335471
 C        -0.691821         0.544758         0.692459
 C        -0.447021         1.779423         1.779319
 C        -1.899083         2.089574         1.230526
 C        -2.189539         3.448972         0.597725
 C        -1.230314         2.927029        -0.527366
 C        -1.502799         1.522342        -0.152208
 O        -2.703086         1.101651         1.871201
 C        -1.865785        -0.063023         1.519904
 H        -0.068767        -1.209004        -0.076898
 H        -0.594289         1.658695         2.842434
 H         0.165617         2.560130         1.563138
 H        -3.151596         3.534297         0.146050
 H        -1.825982         4.279525         1.179605
 H        -1.445014         3.228195        -1.617836
 H        -0.229587         3.114279        -0.443556
 H        -2.246589         1.044791        -0.823648
 H        -1.617609        -0.541597         2.468386
 H        -2.516622        -0.868796         1.132549
