19
Iteration:  2942charge 0 multiplicity 1
 O         0.362713        -0.183093         0.336845
 C        -0.759022         0.485387         0.780301
 C        -0.406554         1.660285         1.657780
 C        -1.943239         2.067142         1.226401
 C        -2.114791         3.548246         0.610207
 C        -1.184616         2.956238        -0.540135
 C        -1.549898         1.497349        -0.209607
 O        -2.807089         1.110828         1.914158
 C        -1.874383        -0.147604         1.609435
 H         0.248151        -1.200646         0.092202
 H        -0.275596         1.522753         2.764545
 H         0.174500         2.494454         1.116203
 H        -3.079329         3.530299         0.069451
 H        -1.825671         4.345794         1.208635
 H        -1.560268         3.113237        -1.563295
 H        -0.036313         3.305389        -0.535567
 H        -2.311729         1.046660        -0.986157
 H        -1.719559        -0.659485         2.539052
 H        -2.530403        -0.870493         1.032697
