19
Iteration:   938charge 0 multiplicity 1
 O         0.256987        -0.372571         0.196299
 C        -0.692603         0.582748         0.778212
 C        -0.400794         1.768546         1.684496
 C        -1.938952         2.040144         1.215339
 C        -2.180381         3.441746         0.561127
 C        -1.276796         3.027578        -0.598454
 C        -1.494094         1.463436        -0.176065
 O        -2.665393         1.088385         1.979779
 C        -1.929642        -0.036979         1.647998
 H         0.837200        -0.656850         1.019435
 H        -0.136083         1.543623         2.749129
 H         0.285211         2.407817         1.214040
 H        -3.222228         3.435961         0.225040
 H        -1.919331         4.337171         1.138962
 H        -1.692279         3.297129        -1.631193
 H        -0.310335         3.307072        -0.465375
 H        -2.256094         0.940980        -0.808872
 H        -1.552327        -0.509362         2.534079
 H        -2.558597        -0.735326         1.210755
