19
Iteration:  4133charge 0 multiplicity 1
 O         0.250820        -0.360312         0.330706
 C        -0.742189         0.541566         0.742791
 C        -0.420179         1.808615         1.698204
 C        -1.844391         2.082353         1.215214
 C        -2.201213         3.431854         0.583408
 C        -1.370856         2.916058        -0.654660
 C        -1.491645         1.449886        -0.234433
 O        -2.611337         1.194897         1.987359
 C        -1.834768        -0.087750         1.564751
 H         0.539184        -0.848431         1.100349
 H        -0.383427         1.703330         2.781371
 H         0.441728         2.500364         1.497163
 H        -3.322198         3.386118         0.382003
 H        -2.031694         4.473125         1.054275
 H        -1.936704         3.116429        -1.632162
 H        -0.314907         3.201502        -0.732433
 H        -2.437197         1.000369        -0.671680
 H        -1.490003        -0.564529         2.473931
 H        -2.445379        -0.761853         1.031331
