19
Iteration:  3576charge 0 multiplicity 1
 O         0.228853        -0.417498         0.315098
 C        -0.695423         0.550339         0.750667
 C        -0.339697         1.809107         1.693743
 C        -1.840148         2.098334         1.229660
 C        -2.292996         3.422450         0.615037
 C        -1.276058         2.970360        -0.585924
 C        -1.482783         1.424133        -0.209374
 O        -2.677639         1.141633         1.952000
 C        -1.887095        -0.013910         1.517498
 H         0.472835        -0.920433         1.221125
 H        -0.278872         1.689192         2.792000
 H         0.261523         2.714477         1.293603
 H        -3.367309         3.452477         0.256649
 H        -1.996971         4.334298         1.215628
 H        -1.706761         3.072348        -1.644982
 H        -0.319340         3.624389        -0.605168
 H        -2.242992         0.894820        -0.831822
 H        -1.272764        -0.597141         2.339126
 H        -2.613674        -0.713636         0.912687
