19
Iteration:  4385
 O         0.236017        -0.427757         0.317436
 C        -0.660476         0.639079         0.734661
 C        -0.335999         1.873613         1.561921
 C        -1.914386         2.109488         1.237075
 C        -2.205478         3.445910         0.506280
 C        -1.354754         2.887064        -0.648551
 C        -1.571146         1.462789        -0.112096
 O        -2.633105         1.078806         1.991330
 C        -1.840099        -0.029603         1.669895
 H         0.262914        -1.016073         1.137546
 H        -0.226109         1.722329         2.684739
 H         0.186533         2.823630         1.383932
 H        -3.215328         3.469367         0.328716
 H        -1.829251         4.379563         0.975999
 H        -1.739323         3.198956        -1.586205
 H        -0.245573         3.205702        -0.723794
 H        -2.203067         0.788256        -0.790790
 H        -1.481424        -0.674083         2.574306
 H        -2.582371        -0.706338         1.043243
