19
Iteration:  3526charge 0 multiplicity 1
 O         0.294455        -0.394270         0.373610
 C        -0.713128         0.596364         0.718866
 C        -0.468717         1.744719         1.675569
 C        -1.971385         2.086804         1.217575
 C        -2.115230         3.472145         0.613397
 C        -1.277252         2.940903        -0.619876
 C        -1.547228         1.493565        -0.190246
 O        -2.652000         1.109481         1.929607
 C        -1.899973        -0.086887         1.597911
 H         1.073226         0.047426         0.232738
 H        -0.482365         1.441632         2.721582
 H         0.291157         2.390153         1.343421
 H        -3.118369         3.767513         0.207360
 H        -1.812794         4.293612         1.314533
 H        -1.692851         2.999681        -1.639913
 H        -0.262754         3.170629        -0.643429
 H        -2.375377         0.955103        -0.747040
 H        -1.459875        -0.455967         2.474398
 H        -2.543070        -0.760045         1.089357
