19
Iteration:  1408
 O         0.261753        -0.361721         0.271014
 C        -0.655624         0.557827         0.809003
 C        -0.387823         1.746182         1.715162
 C        -1.847849         2.124122         1.331560
 C        -2.146384         3.416818         0.615556
 C        -1.357318         2.911158        -0.652447
 C        -1.551960         1.496389        -0.069925
 O        -2.698372         1.129195         1.838720
 C        -1.866700        -0.036429         1.508681
 H         0.308455        -1.023286         0.936815
 H        -0.262483         1.657878         2.742970
 H         0.297833         2.516724         1.223726
 H        -3.151619         3.625432         0.326282
 H        -1.702418         4.422779         1.022177
 H        -1.882560         2.898223        -1.582217
 H        -0.335639         3.413027        -0.840233
 H        -2.480823         1.083826        -0.497227
 H        -1.615383        -0.571841         2.405480
 H        -2.439271        -0.626710         0.774241
