19
Iteration:  2418charge 0 multiplicity 1
 O         0.317532        -0.374671         0.408937
 C        -0.636643         0.573658         0.779788
 C        -0.423729         1.672297         1.742336
 C        -1.875075         2.105980         1.200902
 C        -2.137809         3.463827         0.659791
 C        -1.364664         3.020171        -0.632073
 C        -1.477137         1.520023        -0.128462
 O        -2.746641         1.103927         1.842723
 C        -1.900667        -0.032339         1.441334
 H        -0.074733        -1.234931         0.510339
 H        -0.518932         1.279666         2.716434
 H         0.528165         2.298726         1.585028
 H        -3.267774         3.693196         0.589882
 H        -1.761242         4.220324         1.276651
 H        -1.660772         3.268021        -1.704299
 H        -0.398299         3.490811        -0.747312
 H        -2.301202         1.068797        -0.714004
 H        -1.537996        -0.654951         2.337244
 H        -2.365713        -0.708552         0.720607
