19
Iteration:  2497
 O         0.280757        -0.321622         0.307910
 C        -0.719277         0.545342         0.808797
 C        -0.455607         1.698662         1.813238
 C        -1.898321         2.093591         1.210805
 C        -2.179555         3.472638         0.566344
 C        -1.175713         2.975383        -0.585814
 C        -1.474610         1.483055        -0.108195
 O        -2.738429         1.077802         1.851509
 C        -1.890118        -0.062773         1.563175
 H         0.180825        -0.494585        -0.703058
 H        -0.451976         1.616839         2.910659
 H         0.325088         2.461848         1.556655
 H        -3.243048         3.480673         0.305986
 H        -1.893824         4.424957         1.156611
 H        -1.690694         3.105065        -1.637491
 H        -0.096982         3.463084        -0.581206
 H        -2.346051         1.072046        -0.779135
 H        -1.450203        -0.624230         2.394476
 H        -2.506620        -0.809214         0.971634
