19
Iteration:  4476charge 0 multiplicity 1
 O         0.245757        -0.399607         0.253556
 C        -0.763994         0.554048         0.808260
 C        -0.388190         1.899366         1.703199
 C        -1.880698         2.102813         1.198186
 C        -2.191104         3.449287         0.580291
 C        -1.337276         2.853400        -0.728238
 C        -1.568051         1.441030        -0.197059
 O        -2.601363         1.121803         2.024675
 C        -1.908138        -0.051547         1.668385
 H         1.107983        -0.204315         0.868810
 H        -0.461025         1.851397         2.818619
 H         0.454460         2.512883         1.325194
 H        -3.211390         3.750108         0.282334
 H        -1.724054         4.193655         0.995056
 H        -1.642189         3.118766        -1.834839
 H        -0.294588         3.058305        -0.717489
 H        -2.298650         0.913757        -0.767966
 H        -1.315103        -0.717264         2.429706
 H        -2.498582        -0.747775         1.113902
