19
Iteration:   341
 O         0.278181        -0.375103         0.295354
 C        -0.654011         0.547589         0.788872
 C        -0.390704         1.743713         1.642478
 C        -1.914105         2.060200         1.176669
 C        -2.182805         3.520333         0.621002
 C        -1.374357         2.963422        -0.665162
 C        -1.468198         1.476333        -0.162605
 O        -2.701942         1.090851         1.983303
 C        -1.922649        -0.013769         1.601996
 H         0.747516        -0.788662         0.999450
 H        -0.346657         1.601798         2.660267
 H         0.515706         2.423075         1.369305
 H        -3.211477         3.744387         0.337119
 H        -1.731164         4.338843         1.232307
 H        -1.747861         3.084065        -1.691053
 H        -0.398150         3.226735        -0.922577
 H        -2.086774         1.008231        -0.802880
 H        -1.585503        -0.595267         2.563089
 H        -2.513429        -0.800259         1.116362
