19
Iteration:  4866charge 0 multiplicity 1
 O         0.269721        -0.262353         0.263300
 C        -0.687185         0.528226         0.787261
 C        -0.426604         1.778428         1.638350
 C        -1.879889         2.101471         1.210916
 C        -2.079322         3.471107         0.550006
 C        -1.365117         2.865206        -0.629008
 C        -1.616895         1.323819        -0.191265
 O        -2.675733         1.172601         1.919339
 C        -1.861416        -0.015394         1.737999
 H         0.840758        -0.652208         0.834469
 H        -0.090808         1.769678         2.728078
 H         0.218964         2.396859         0.957297
 H        -3.143096         3.535789         0.473379
 H        -1.631607         4.269105         1.013959
 H        -1.771660         3.160767        -1.732465
 H        -0.260111         3.183953        -0.592104
 H        -2.585408         0.719805        -0.569338
 H        -1.599384        -0.426479         2.704363
 H        -2.502788        -0.882782         1.364231
