19
Iteration:  1437
 O         0.260973        -0.342667         0.270812
 C        -0.686541         0.571854         0.767230
 C        -0.460436         1.771402         1.684695
 C        -1.921265         2.053854         1.187300
 C        -2.147625         3.418114         0.616036
 C        -1.280113         3.001168        -0.650051
 C        -1.508861         1.468039        -0.246831
 O        -2.624519         1.111161         2.022411
 C        -1.925702        -0.089461         1.586858
 H         0.421435        -0.970095         1.071344
 H        -0.542871         1.655763         2.803310
 H         0.358904         2.566707         1.627246
 H        -3.113189         3.876780         0.336494
 H        -1.629135         4.258299         1.132699
 H        -1.793598         3.030018        -1.664237
 H        -0.345226         3.426847        -0.580646
 H        -2.290248         1.066008        -0.853204
 H        -1.535199        -0.581897         2.501698
 H        -2.561864        -0.697184         0.946739
