19
Iteration:  3581
 O         0.230378        -0.430717         0.326034
 C        -0.682688         0.607313         0.761896
 C        -0.371567         1.815250         1.684841
 C        -1.860503         2.098852         1.248299
 C        -2.248227         3.417096         0.605361
 C        -1.323640         2.987780        -0.602167
 C        -1.478582         1.424394        -0.232691
 O        -2.674786         1.134451         1.973612
 C        -1.852303        -0.030546         1.517461
 H         0.381956        -1.061155         1.013155
 H        -0.397162         1.782643         2.775634
 H         0.326091         2.548563         1.408333
 H        -3.276470         3.339160         0.311018
 H        -1.936817         4.316854         1.127694
 H        -1.553191         3.078116        -1.644577
 H        -0.385297         3.469685        -0.561869
 H        -2.258933         0.984300        -0.897174
 H        -1.517406        -0.636235         2.315065
 H        -2.477117        -0.654236         0.922231
