19
Iteration:  2442
 O         0.401820        -0.352802         0.460000
 C        -0.726855         0.503458         0.761104
 C        -0.412579         1.743065         1.618481
 C        -1.871357         2.103621         1.198287
 C        -2.154581         3.485105         0.738802
 C        -1.304675         3.039324        -0.535443
 C        -1.455451         1.507657        -0.260905
 O        -2.703761         1.117855         1.830699
 C        -2.015416        -0.133475         1.509566
 H         0.111910        -1.372177         0.628696
 H        -0.265153         1.586351         2.648431
 H         0.336956         2.512845         1.133643
 H        -3.243866         3.587981         0.493030
 H        -2.007237         4.314225         1.476111
 H        -1.689948         3.482434        -1.468332
 H        -0.306851         3.426554        -0.845981
 H        -2.331207         0.985747        -0.837380
 H        -1.658310        -0.810438         2.294705
 H        -2.831602        -0.668557         0.829827
