19
Iteration:   145charge 0 multiplicity 1
 O         0.194600        -0.374390         0.296944
 C        -0.634032         0.543708         0.858932
 C        -0.405654         1.742816         1.720457
 C        -1.926062         2.119452         1.190314
 C        -2.219537         3.542322         0.566006
 C        -1.275630         2.904874        -0.679463
 C        -1.552429         1.485187        -0.165092
 O        -2.634313         1.137554         1.932487
 C        -1.834815        -0.104474         1.608834
 H         0.946834        -0.551371         0.773948
 H        -0.302888         1.515609         2.693524
 H         0.291403         2.446518         1.083398
 H        -3.270349         3.624125         0.298202
 H        -1.922547         4.376632         1.234892
 H        -1.798394         3.062819        -1.681033
 H        -0.257911         3.160507        -0.606900
 H        -2.375966         0.950528        -0.717858
 H        -1.771816        -0.618768         2.520551
 H        -2.342049        -0.714454         0.891279
