19
Iteration:  1223
 O         0.250796        -0.347947         0.185401
 C        -0.659454         0.562577         0.738679
 C        -0.421609         1.712502         1.727732
 C        -1.811213         2.078142         1.205145
 C        -2.260013         3.433703         0.600798
 C        -1.312351         2.943619        -0.603181
 C        -1.394565         1.414436        -0.171544
 O        -2.713760         1.180149         1.934355
 C        -1.929170        -0.011633         1.644885
 H         0.621476        -0.934940         0.978373
 H        -0.449834         1.577216         2.798361
 H         0.365630         2.548227         1.500984
 H        -3.273039         3.380110         0.371655
 H        -2.072372         4.364470         1.025692
 H        -1.687330         3.212159        -1.564667
 H        -0.251979         3.288745        -0.359574
 H        -2.184867         0.950494        -0.837520
 H        -1.630624        -0.279757         2.682282
 H        -2.584056        -0.752430         1.128623
