19
Iteration:   164
 O         0.272932        -0.389281         0.303388
 C        -0.737649         0.599558         0.697463
 C        -0.395143         1.899841         1.590415
 C        -1.878152         2.070455         1.231564
 C        -2.158299         3.353040         0.584321
 C        -1.226776         2.931559        -0.542486
 C        -1.589732         1.421324        -0.151730
 O        -2.680582         1.127417         2.004937
 C        -1.951055        -0.047580         1.564959
 H         0.756506        -0.465787         1.071203
 H        -0.295082         1.715237         2.712496
 H         0.325839         2.528481         0.983746
 H        -3.142781         3.479651         0.122180
 H        -1.857261         4.343645         0.961049
 H        -1.515838         3.144570        -1.592690
 H        -0.252345         3.170780        -0.345408
 H        -2.333026         1.024963        -0.692263
 H        -1.404573        -0.446466         2.462456
 H        -2.537746        -0.777867         1.050193
