19
Iteration:  4348
 O         0.302661        -0.282133         0.253030
 C        -0.669371         0.510847         0.752125
 C        -0.387859         1.791715         1.657481
 C        -1.847631         2.086122         1.228649
 C        -2.209908         3.422255         0.522310
 C        -1.361259         2.862709        -0.699116
 C        -1.524203         1.427118        -0.169826
 O        -2.620567         1.187828         2.019331
 C        -1.950756        -0.032796         1.722927
 H         0.501542        -0.929266         0.933618
 H        -0.306931         1.513874         2.680259
 H         0.471197         2.378213         1.288864
 H        -3.358278         3.511136         0.272698
 H        -1.932179         4.394187         1.103807
 H        -1.859718         2.972583        -1.695940
 H        -0.453817         3.351553        -0.674677
 H        -2.172702         0.964371        -0.900180
 H        -1.706885        -0.462678         2.670596
 H        -2.694090        -0.727244         1.147614
