19
Iteration:  1908charge 0 multiplicity 1
 O         0.308379        -0.354895         0.357392
 C        -0.665106         0.572641         0.745015
 C        -0.395111         1.730292         1.752592
 C        -1.796854         2.119952         1.259861
 C        -2.164172         3.462514         0.664380
 C        -1.292099         2.908344        -0.570109
 C        -1.459855         1.423123        -0.170817
 O        -2.835149         1.155611         1.803028
 C        -1.939563        -0.063308         1.536668
 H         0.573993        -0.275168        -0.638486
 H        -0.111577         1.322094         2.784000
 H         0.391267         2.417625         1.535846
 H        -3.262771         3.392880         0.503380
 H        -1.956570         4.540976         1.139916
 H        -1.778220         3.044069        -1.620833
 H        -0.335063         3.314212        -0.442937
 H        -2.388062         1.009650        -0.613733
 H        -1.679652        -0.483076         2.586310
 H        -2.488573        -0.670006         0.950624
