19
Iteration:   318
 O         0.197001        -0.434773         0.229806
 C        -0.683024         0.530853         0.798990
 C        -0.468512         1.858148         1.824071
 C        -1.847029         2.106064         1.235485
 C        -2.121943         3.426768         0.549731
 C        -1.381191         2.976924        -0.660878
 C        -1.492650         1.450008        -0.122016
 O        -2.659579         1.145240         1.923825
 C        -1.830930        -0.095055         1.539985
 H         0.916116        -0.509391         0.929461
 H        -0.310540         1.955230         2.839580
 H         0.333812         2.486226         1.326765
 H        -3.186000         3.463322         0.324836
 H        -1.801943         4.343866         1.100983
 H        -1.787453         3.182000        -1.684235
 H        -0.449021         3.341118        -0.895889
 H        -2.296605         1.052482        -0.568738
 H        -1.731915        -0.613535         2.564927
 H        -2.399834        -0.848914         0.976448
