19
Iteration:   835charge 0 multiplicity 1
 O         0.223843        -0.368055         0.242980
 C        -0.668867         0.564693         0.783873
 C        -0.369989         1.809951         1.725568
 C        -1.877564         2.081422         1.286149
 C        -2.242089         3.465828         0.579783
 C        -1.295530         2.938771        -0.639904
 C        -1.522921         1.482077        -0.157682
 O        -2.719612         1.115261         1.975544
 C        -1.851185        -0.121250         1.537838
 H         0.614075        -0.768383         0.976136
 H        -0.097126         1.787920         2.808623
 H         0.309409         2.525264         1.187202
 H        -3.316293         3.651208         0.368258
 H        -1.925737         4.338616         1.187596
 H        -1.514988         3.193193        -1.655648
 H        -0.195568         3.352208        -0.731022
 H        -2.146039         0.831271        -0.993652
 H        -1.400829        -0.474568         2.397596
 H        -2.479269        -0.783592         0.931724
