19
Iteration:  4696
 O         0.302755        -0.312117         0.304730
 C        -0.748487         0.474245         0.784090
 C        -0.433680         1.736501         1.607539
 C        -1.874383         2.104707         1.156235
 C        -2.182901         3.455463         0.533928
 C        -1.369068         2.873179        -0.638566
 C        -1.546722         1.364824        -0.152932
 O        -2.579762         1.257275         2.007278
 C        -1.887433        -0.058570         1.602714
 H         0.815964        -0.377198         1.033032
 H        -0.453978         1.674321         2.711827
 H         0.361652         2.356765         1.140814
 H        -3.303576         3.562920         0.347957
 H        -1.874108         4.236563         1.294847
 H        -1.749203         3.219683        -1.578107
 H        -0.391193         3.279522        -0.499512
 H        -2.441816         0.962233        -0.545025
 H        -1.408337        -0.487270         2.541940
 H        -2.623899        -0.685609         1.197863
