19
Iteration:  4692
 O         0.288416        -0.303819         0.311432
 C        -0.716630         0.462137         0.769004
 C        -0.432011         1.724161         1.622302
 C        -1.859784         2.079696         1.179250
 C        -2.242581         3.447357         0.555138
 C        -1.368323         2.887650        -0.649921
 C        -1.552709         1.366743        -0.158411
 O        -2.561936         1.261317         1.989989
 C        -1.907747        -0.038974         1.613753
 H         0.998333        -0.443155         1.097450
 H        -0.353429         1.732391         2.715571
 H         0.479781         2.232547         1.212905
 H        -3.330039         3.620275         0.335621
 H        -1.851171         4.294610         1.270469
 H        -1.637197         3.218204        -1.715964
 H        -0.329401         3.211599        -0.620894
 H        -2.511684         1.018434        -0.598079
 H        -1.442065        -0.401262         2.517884
 H        -2.704773        -0.680451         1.144644
