19
Iteration:  1969
 O         0.218414        -0.430008         0.447952
 C        -0.672088         0.605372         0.732565
 C        -0.401199         1.801511         1.660251
 C        -1.992011         2.032489         1.179552
 C        -2.151191         3.459947         0.614832
 C        -1.234632         3.011673        -0.560364
 C        -1.588264         1.513337        -0.192621
 O        -2.683462         1.055610         1.944271
 C        -1.855624        -0.071786         1.498651
 H         1.164558        -0.158255         0.408805
 H        -0.034424         1.479430         2.586902
 H         0.197213         2.577219         1.089319
 H        -3.193157         3.679411         0.251070
 H        -1.790023         4.223338         1.245995
 H        -1.468695         3.384159        -1.506668
 H        -0.151656         3.321352        -0.492967
 H        -2.434297         1.038972        -0.714185
 H        -1.685790        -0.723321         2.289496
 H        -2.446980        -0.800527         0.739628
