19
Iteration:  4066charge 0 multiplicity 1
 O         0.260605        -0.348919         0.324021
 C        -0.699555         0.583550         0.758758
 C        -0.376421         1.662949         1.699517
 C        -1.862000         2.076030         1.210575
 C        -2.131825         3.415402         0.522014
 C        -1.373072         2.924411        -0.650443
 C        -1.557180         1.477273        -0.210013
 O        -2.736530         1.159205         1.953936
 C        -1.855779        -0.064534         1.690603
 H         1.179903         0.082372         0.503824
 H        -0.124898         1.418449         2.756956
 H         0.364162         2.503855         1.512118
 H        -3.216049         3.473271         0.299486
 H        -1.836404         4.461619         1.012640
 H        -1.829703         3.340940        -1.652166
 H        -0.386225         3.349304        -0.778119
 H        -2.387762         0.919711        -0.803068
 H        -1.368653        -0.423368         2.566436
 H        -2.531812        -0.729668         1.242750
