19
Iteration:  1254charge 0 multiplicity 1
 O         0.219899        -0.370210         0.325546
 C        -0.667900         0.558417         0.761887
 C        -0.432320         1.840003         1.587950
 C        -1.918899         2.067044         1.209944
 C        -2.130733         3.482936         0.542648
 C        -1.246091         3.009744        -0.547848
 C        -1.565645         1.470319        -0.156114
 O        -2.676466         1.053858         2.009435
 C        -1.861485        -0.140352         1.539210
 H         0.406404        -0.699432         1.154192
 H        -0.356909         1.863213         2.617016
 H         0.277007         2.670254         1.236337
 H        -3.117377         3.568940         0.182628
 H        -1.891768         4.445199         1.029760
 H        -1.664814         3.343494        -1.588066
 H        -0.150975         3.202667        -0.445386
 H        -2.446543         1.074072        -0.731046
 H        -1.485526        -0.677547         2.493384
 H        -2.404560        -0.922681         0.799881
