19
Iteration:  3513charge 0 multiplicity 1
 O         0.238619        -0.342570         0.430730
 C        -0.704713         0.545131         0.777193
 C        -0.492143         1.785800         1.659279
 C        -1.885046         2.063207         1.184170
 C        -2.091791         3.500621         0.626348
 C        -1.248920         2.897041        -0.609131
 C        -1.586212         1.441662        -0.172596
 O        -2.720833         1.087564         1.955059
 C        -1.822239        -0.072164         1.542118
 H         0.828899         0.084376        -0.341043
 H        -0.362822         1.686620         2.715871
 H         0.274356         2.554385         1.420889
 H        -3.183795         3.632845         0.363521
 H        -1.599866         4.321777         1.086904
 H        -1.807258         3.253704        -1.511526
 H        -0.310687         3.324225        -0.753145
 H        -2.207528         0.957873        -1.027850
 H        -1.557257        -0.690189         2.313694
 H        -2.406795        -0.720102         0.844295
