19
Iteration:   629
 O         0.308904        -0.340136         0.246838
 C        -0.615737         0.536200         0.818118
 C        -0.411507         1.779655         1.663315
 C        -1.846512         2.132033         1.249976
 C        -2.155016         3.443469         0.615356
 C        -1.362740         2.957128        -0.607384
 C        -1.487725         1.395080        -0.170719
 O        -2.743963         1.146532         1.870521
 C        -1.967793        -0.084390         1.639774
 H         0.726587        -0.746340         0.955337
 H        -0.314634         1.531994         2.803522
 H         0.358590         2.376303         1.266423
 H        -3.231857         3.625249         0.431784
 H        -1.785952         4.350218         1.121346
 H        -1.929540         3.124238        -1.527454
 H        -0.369386         3.321583        -0.926234
 H        -2.317942         0.922334        -0.577415
 H        -1.561329        -0.473503         2.606062
 H        -2.465539        -0.575917         0.823345
