19
Iteration:  1898charge 0 multiplicity 1
 O         0.305693        -0.354460         0.354942
 C        -0.676526         0.534392         0.803535
 C        -0.422345         1.709487         1.715641
 C        -1.859823         2.089097         1.307998
 C        -2.181538         3.453303         0.606680
 C        -1.267844         2.955753        -0.539736
 C        -1.490444         1.463924        -0.110718
 O        -2.723299         1.168567         1.764303
 C        -1.935542        -0.089330         1.547612
 H         0.299615        -0.205154        -0.602648
 H        -0.233884         1.494325         2.853133
 H         0.199972         2.395178         1.221593
 H        -3.215461         3.556061         0.234490
 H        -1.899278         4.488461         1.203200
 H        -1.668475         3.134985        -1.631457
 H        -0.298806         3.388493        -0.651355
 H        -2.386421         1.051758        -0.593438
 H        -1.636815        -0.711484         2.470592
 H        -2.483004        -0.751846         0.982029
