19
Iteration:  1229charge 0 multiplicity 1
 O         0.244364        -0.371178         0.201591
 C        -0.651391         0.562064         0.754254
 C        -0.445802         1.731080         1.723979
 C        -1.875190         2.084521         1.227429
 C        -2.278051         3.425828         0.634268
 C        -1.255140         2.917072        -0.605778
 C        -1.433504         1.430475        -0.211467
 O        -2.662663         1.160791         1.921251
 C        -1.909201         0.039076         1.632533
 H         0.521880        -0.839910         0.984956
 H        -0.403243         1.629663         2.834893
 H         0.284105         2.415346         1.517379
 H        -3.407351         3.498422         0.330456
 H        -2.036532         4.460981         1.141540
 H        -1.645845         3.169622        -1.708299
 H        -0.275385         3.180423        -0.385133
 H        -2.174158         0.943407        -0.792576
 H        -1.406924        -0.417827         2.509702
 H        -2.598699        -0.686266         1.090912
