19
Iteration:  3175charge 0 multiplicity 1
 O         0.252242        -0.357518         0.254120
 C        -0.715341         0.566003         0.786278
 C        -0.440325         1.846311         1.701091
 C        -1.872139         2.062521         1.237712
 C        -2.263287         3.423172         0.539565
 C        -1.244900         2.950995        -0.543380
 C        -1.434924         1.463276        -0.203937
 O        -2.692306         1.127457         1.954088
 C        -1.862773        -0.027049         1.578549
 H         0.232626        -1.063152         0.963937
 H        -0.332321         1.536868         2.752434
 H         0.407863         2.245109         1.236939
 H        -3.136250         3.424359         0.017600
 H        -2.120358         4.217894         1.239382
 H        -1.534961         3.100333        -1.646883
 H        -0.244789         3.379095        -0.552234
 H        -2.213212         0.979019        -0.770888
 H        -1.465078        -0.493497         2.546262
 H        -2.564058        -0.793254         1.089328
