19
Iteration:  3410charge 0 multiplicity 1
 O         0.305983        -0.339163         0.395125
 C        -0.704405         0.605808         0.781961
 C        -0.396702         1.822170         1.704179
 C        -1.936016         2.021219         1.180012
 C        -2.123729         3.477552         0.631263
 C        -1.305138         2.966613        -0.631079
 C        -1.521785         1.478260        -0.196441
 O        -2.683483         1.077504         1.918410
 C        -1.916469        -0.069323         1.525640
 H        -0.059815        -1.154839         0.537169
 H        -0.362963         1.458747         2.743503
 H         0.252517         2.502911         1.262694
 H        -3.120672         3.602057         0.383164
 H        -1.757332         4.245489         1.293401
 H        -1.617695         3.091956        -1.644945
 H        -0.195185         3.357610        -0.638925
 H        -2.272379         0.978790        -0.785001
 H        -1.575985        -0.568104         2.478510
 H        -2.413409        -0.683681         0.770114
