19
Iteration:  1644charge 0 multiplicity 1
 O         0.299089        -0.380092         0.302773
 C        -0.749182         0.477228         0.717402
 C        -0.444809         1.670655         1.675979
 C        -1.965893         2.061435         1.229021
 C        -2.158182         3.423045         0.675958
 C        -1.241363         3.006440        -0.570980
 C        -1.466143         1.539897        -0.270237
 O        -2.683598         1.139532         1.975840
 C        -1.944868        -0.071097         1.543223
 H         1.182259         0.069243         0.658885
 H        -0.335475         1.543648         2.702268
 H         0.349594         2.422894         1.206493
 H        -3.232016         3.632350         0.348564
 H        -1.932188         4.311924         1.230765
 H        -1.481874         3.267151        -1.585532
 H        -0.259402         3.470505        -0.358483
 H        -2.269714         1.178577        -0.909794
 H        -1.590414        -0.354413         2.609255
 H        -2.653617        -0.725849         0.994025
