19
Iteration:  1438charge 0 multiplicity 1
 O         0.262744        -0.341646         0.271637
 C        -0.688973         0.566523         0.761162
 C        -0.473484         1.768282         1.680972
 C        -1.923172         2.049285         1.187340
 C        -2.153214         3.415036         0.610494
 C        -1.273463         3.003711        -0.648178
 C        -1.510651         1.468639        -0.239197
 O        -2.620320         1.114663         2.018994
 C        -1.923274        -0.087042         1.595247
 H         0.455041        -0.989235         1.075657
 H        -0.534793         1.680120         2.767183
 H         0.378145         2.570996         1.598199
 H        -3.115324         3.868287         0.342990
 H        -1.599535         4.278875         1.167292
 H        -1.790172         3.048842        -1.639175
 H        -0.331442         3.447104        -0.582202
 H        -2.284939         1.079967        -0.840267
 H        -1.553333        -0.608245         2.475367
 H        -2.562491        -0.691714         0.966551
