19
Iteration:  1180charge 0 multiplicity 1
 O         0.253566        -0.340551         0.312292
 C        -0.692334         0.597185         0.744304
 C        -0.440466         1.813182         1.639605
 C        -1.861735         2.118182         1.241418
 C        -2.126250         3.498083         0.585806
 C        -1.320409         2.889526        -0.565164
 C        -1.565455         1.435563        -0.176257
 O        -2.675588         1.104926         1.953523
 C        -1.904937        -0.115388         1.520607
 H         0.659312        -0.717950         1.158550
 H        -0.258120         1.527871         2.680561
 H         0.465296         2.509742         1.423759
 H        -3.176876         3.627166         0.391089
 H        -1.795601         4.397883         1.036239
 H        -1.669717         2.994142        -1.499637
 H        -0.252622         3.238408        -0.367783
 H        -2.413926         0.963567        -0.782647
 H        -1.409911        -0.650959         2.319372
 H        -2.476535        -0.686139         0.859818
