19
Iteration:   944charge 0 multiplicity 1
 O         0.286965        -0.365159         0.210085
 C        -0.729515         0.563445         0.762262
 C        -0.398338         1.738662         1.672365
 C        -1.930464         2.063971         1.190399
 C        -2.190859         3.480765         0.540578
 C        -1.277194         3.062655        -0.607765
 C        -1.491028         1.470951        -0.191196
 O        -2.682441         1.109518         2.023048
 C        -1.931423        -0.103439         1.689501
 H         0.833162        -0.633761         1.000699
 H        -0.167558         1.517274         2.695243
 H         0.466673         2.360176         1.202852
 H        -3.226436         3.453360         0.162643
 H        -2.177019         4.325679         1.265013
 H        -1.687959         3.307702        -1.581470
 H        -0.104730         3.130705        -0.538200
 H        -2.248066         1.110706        -0.974215
 H        -1.423563        -0.618253         2.567466
 H        -2.570878        -0.916840         1.153687
