19
Iteration:  2798
 O         0.317530        -0.282038         0.284495
 C        -0.678721         0.611821         0.788150
 C        -0.421862         1.765422         1.762899
 C        -1.934014         2.066612         1.285517
 C        -2.140936         3.441242         0.582524
 C        -1.179467         2.914745        -0.558059
 C        -1.528900         1.443680        -0.144163
 O        -2.779507         1.123108         1.833834
 C        -1.911750        -0.101952         1.592538
 H        -0.075418        -0.557180        -0.655384
 H        -0.436791         1.465667         2.849144
 H         0.363482         2.463136         1.546996
 H        -3.185793         3.704844         0.131116
 H        -1.776715         4.158159         1.252444
 H        -1.444671         3.264463        -1.635433
 H        -0.144875         3.126496        -0.526134
 H        -2.414575         0.931828        -0.684455
 H        -1.625779        -0.520911         2.490450
 H        -2.334835        -0.920948         0.989379
