19
Iteration:  3550charge 0 multiplicity 1
 O         0.286720        -0.407047         0.309663
 C        -0.685843         0.502132         0.841187
 C        -0.361741         1.737929         1.608012
 C        -1.847942         2.086793         1.219348
 C        -2.184122         3.413324         0.597898
 C        -1.314983         3.039676        -0.588624
 C        -1.575622         1.491704        -0.232841
 O        -2.735425         1.155113         1.897463
 C        -1.904817        -0.082302         1.637579
 H         1.152720        -0.306697         0.832453
 H        -0.411176         1.703732         2.722687
 H         0.336474         2.400616         1.157789
 H        -3.246897         3.390269         0.356820
 H        -1.993482         4.456030         1.169617
 H        -1.517051         3.189639        -1.638396
 H        -0.277491         3.461943        -0.365290
 H        -2.350150         1.000072        -0.774365
 H        -1.558818        -0.600316         2.586166
 H        -2.474406        -0.671668         1.004277
