19
Iteration:  2367charge 0 multiplicity 1
 O         0.319646        -0.284505         0.356817
 C        -0.708632         0.546737         0.739565
 C        -0.404931         1.701764         1.691310
 C        -1.944224         2.029978         1.170908
 C        -2.250827         3.479448         0.661891
 C        -1.135874         2.945892        -0.502928
 C        -1.540071         1.464298        -0.246583
 O        -2.719665         1.154829         1.918845
 C        -1.930629        -0.071914         1.594235
 H         0.202163        -0.556774        -0.528725
 H        -0.284156         1.413089         2.738244
 H         0.362032         2.399009         1.187116
 H        -3.222167         3.466682         0.168253
 H        -1.890910         4.301634         1.423045
 H        -1.271040         3.275120        -1.504901
 H        -0.055049         3.192319        -0.199933
 H        -2.295793         0.993180        -0.990649
 H        -1.618073        -0.510250         2.483709
 H        -2.562034        -0.782234         0.879798
