19
Iteration:   139
 O         0.213552        -0.399275         0.271775
 C        -0.651764         0.574999         0.875648
 C        -0.396889         1.724874         1.742335
 C        -1.915990         2.094498         1.166407
 C        -2.218074         3.528336         0.583489
 C        -1.336492         2.946353        -0.719682
 C        -1.527046         1.491174        -0.126364
 O        -2.637631         1.148033         1.929825
 C        -1.866398        -0.108302         1.608551
 H         1.060852        -0.571030         0.773659
 H        -0.305752         1.433847         2.925637
 H         0.410315         2.308183         1.417521
 H        -3.237891         3.762890         0.183479
 H        -1.868451         4.439326         1.082538
 H        -1.816658         2.988987        -1.663690
 H        -0.226872         3.344849        -0.902889
 H        -2.262799         0.945170        -0.787930
 H        -1.653993        -0.534239         2.672650
 H        -2.382079        -0.852231         0.868607
