19
Iteration:  4270charge 0 multiplicity 1
 O         0.309914        -0.497380         0.425323
 C        -0.685121         0.588570         0.782517
 C        -0.441115         1.808402         1.637713
 C        -1.858132         2.082120         1.205180
 C        -2.221912         3.437693         0.561157
 C        -1.365710         2.887153        -0.666770
 C        -1.512314         1.467671        -0.207251
 O        -2.639127         1.156701         1.964546
 C        -1.861401        -0.005125         1.638470
 H         0.658939        -0.163228        -0.531549
 H        -0.302058         1.622636         2.696503
 H         0.255323         2.615393         1.402730
 H        -3.391209         3.657666         0.471447
 H        -1.794330         4.273455         1.141715
 H        -1.969128         3.192373        -1.558390
 H        -0.436964         3.374963        -0.826222
 H        -2.356359         1.058032        -0.673610
 H        -1.409668        -0.504306         2.512852
 H        -2.649885        -0.614967         1.083023
