19
Iteration:   957charge 0 multiplicity 1
 O         0.298923        -0.309570         0.275924
 C        -0.744389         0.432398         0.696814
 C        -0.438174         1.686071         1.589333
 C        -1.864310         2.127613         1.167611
 C        -2.284446         3.477519         0.613030
 C        -1.164817         3.007365        -0.583247
 C        -1.577201         1.518529        -0.207208
 O        -2.683312         1.165925         2.053043
 C        -1.852595        -0.164912         1.657757
 H         0.855357        -0.652797         1.019294
 H        -0.494136         1.560245         2.644020
 H         0.431388         2.366551         1.290437
 H        -3.203801         3.465841         0.119111
 H        -2.044737         4.439607         1.087231
 H        -1.575563         3.210155        -1.651246
 H        -0.224431         3.575727        -0.535176
 H        -2.456075         0.978445        -0.849638
 H        -1.475148        -0.533632         2.582883
 H        -2.567972        -0.858170         1.179985
