19
Iteration:  4099charge 0 multiplicity 1
 O         0.237660        -0.433985         0.296844
 C        -0.672201         0.526387         0.800553
 C        -0.364135         1.863891         1.593397
 C        -1.930889         2.145121         1.205819
 C        -2.228873         3.456777         0.535223
 C        -1.324748         2.924890        -0.526659
 C        -1.512348         1.408825        -0.196266
 O        -2.654430         1.161814         2.004825
 C        -1.858283        -0.115967         1.597411
 H         1.078220        -0.365429         0.907312
 H        -0.239170         1.803208         2.676939
 H         0.227007         2.601376         0.983775
 H        -3.304013         3.381648         0.237409
 H        -1.891341         4.497743         1.007626
 H        -1.689115         3.285877        -1.581306
 H        -0.285162         3.203610        -0.428194
 H        -2.409162         1.032705        -0.847164
 H        -1.592950        -0.674108         2.470739
 H        -2.545992        -0.668088         0.994754
