19
Iteration:  3388
 O         0.410494        -0.307267         0.379866
 C        -0.733288         0.529977         0.730119
 C        -0.448850         1.708250         1.738157
 C        -1.904136         2.103406         1.196756
 C        -2.126895         3.499276         0.637368
 C        -1.311757         2.945097        -0.595349
 C        -1.550185         1.490149        -0.195032
 O        -2.731583         1.145685         1.869858
 C        -1.907060        -0.081378         1.568893
 H         0.228840        -1.345252         0.304098
 H        -0.485829         1.542286         2.838094
 H         0.304762         2.270282         1.292846
 H        -3.125176         3.554339         0.425977
 H        -1.649844         4.356206         1.079786
 H        -1.844631         3.185705        -1.507656
 H        -0.226312         3.232317        -0.854383
 H        -2.294322         0.923606        -0.714586
 H        -1.476925        -0.421161         2.525240
 H        -2.520322        -0.774695         1.005808
