19
Iteration:  3482charge 0 multiplicity 1
 O         0.362967        -0.389434         0.404666
 C        -0.652870         0.497065         0.752496
 C        -0.416871         1.777699         1.689898
 C        -1.876963         2.082823         1.201950
 C        -2.203445         3.468352         0.617151
 C        -1.270100         2.942307        -0.605873
 C        -1.526844         1.502021        -0.125139
 O        -2.729546         1.134371         1.889800
 C        -1.936700        -0.078846         1.585338
 H         0.238189        -0.478251        -0.492312
 H        -0.366218         1.589212         2.760042
 H         0.233816         2.510239         1.221042
 H        -3.320233         3.597469         0.400632
 H        -1.718798         4.390499         1.082646
 H        -1.807171         3.158633        -1.563330
 H        -0.333579         3.379180        -0.626407
 H        -2.223404         1.115850        -0.913583
 H        -1.688807        -0.570535         2.486402
 H        -2.553752        -0.644809         0.913906
