19
Iteration:  3342charge 0 multiplicity 1
 O         0.274952        -0.361104         0.440052
 C        -0.661583         0.541129         0.770287
 C        -0.473210         1.779140         1.664349
 C        -1.925959         2.153263         1.218574
 C        -2.192287         3.420665         0.616240
 C        -1.229513         2.920328        -0.548846
 C        -1.512398         1.427719        -0.228361
 O        -2.659701         1.146037         1.934292
 C        -1.904256        -0.075922         1.521344
 H         0.216511        -0.435198        -0.615871
 H        -0.340104         1.499459         2.710824
 H         0.189873         2.557555         1.274396
 H        -3.047446         3.487045         0.083452
 H        -1.879413         4.226861         1.271083
 H        -1.626410         3.218374        -1.618988
 H        -0.254793         3.359740        -0.518145
 H        -2.271542         0.969176        -0.804050
 H        -1.409833        -0.531947         2.458853
 H        -2.644690        -0.639379         0.977751
