19
Iteration:  2828
 O         0.340824        -0.350296         0.390791
 C        -0.711607         0.559027         0.773137
 C        -0.523273         1.788172         1.683560
 C        -1.921579         2.065086         1.286712
 C        -2.120784         3.495918         0.622572
 C        -1.240199         3.011605        -0.608780
 C        -1.427748         1.455949        -0.224817
 O        -2.718115         1.081314         1.934266
 C        -1.964977        -0.115419         1.522631
 H         0.167025        -0.546852        -0.549126
 H        -0.486228         1.692220         2.736533
 H         0.259957         2.483412         1.306698
 H        -3.088841         3.813498         0.326007
 H        -1.638956         4.132135         1.305221
 H        -1.773269         3.221423        -1.538332
 H        -0.195935         3.335042        -0.626501
 H        -2.146412         0.841246        -0.831996
 H        -1.607814        -0.669760         2.478650
 H        -2.545173        -0.855172         0.900873
