19
Iteration:   283
 O         0.288730        -0.343973         0.269818
 C        -0.725950         0.511721         0.706262
 C        -0.345967         1.738464         1.617540
 C        -1.928313         2.030187         1.224275
 C        -2.204700         3.420219         0.536540
 C        -1.267282         2.992718        -0.545514
 C        -1.525042         1.470562        -0.208157
 O        -2.711932         1.194426         2.014704
 C        -1.913825        -0.065010         1.644110
 H         0.868406        -0.391216         1.118403
 H        -0.088454         1.534410         2.697162
 H         0.315161         2.282317         1.118394
 H        -3.236106         3.540293         0.170259
 H        -1.946841         4.347742         1.074347
 H        -1.595646         3.175789        -1.592898
 H        -0.272070         3.203568        -0.297887
 H        -2.264075         0.968065        -0.844490
 H        -1.552318        -0.449606         2.629366
 H        -2.544061        -0.735837         1.031581
