19
Iteration:   542charge 0 multiplicity 1
 O         0.269927        -0.334242         0.253285
 C        -0.663740         0.626702         0.714006
 C        -0.396372         1.761608         1.734715
 C        -1.887572         2.037123         1.184531
 C        -2.213096         3.453946         0.545405
 C        -1.311113         2.955389        -0.574730
 C        -1.531756         1.422615        -0.197774
 O        -2.653466         1.194852         1.963450
 C        -1.915632        -0.100399         1.593393
 H         0.626194        -0.833569         1.063715
 H        -0.383572         1.470096         2.861158
 H         0.451961         2.232097         1.450635
 H        -3.300244         3.478064         0.283996
 H        -2.000123         4.347491         1.132374
 H        -1.761040         3.196187        -1.499319
 H        -0.249699         3.160898        -0.466188
 H        -2.117370         0.797184        -0.798062
 H        -1.345023        -0.468991         2.620007
 H        -2.768924        -0.757771         1.240119
