19
Iteration:  4859charge 0 multiplicity 1
 O         0.287569        -0.281747         0.248319
 C        -0.702672         0.509135         0.798316
 C        -0.443515         1.833655         1.634834
 C        -1.833552         2.029698         1.201755
 C        -2.103319         3.451281         0.565672
 C        -1.371628         2.885563        -0.649539
 C        -1.598627         1.365731        -0.164167
 O        -2.717239         1.197446         1.890470
 C        -1.842942        -0.019264         1.745797
 H         0.831194        -0.682969         0.895638
 H         0.007679         1.500545         2.531698
 H         0.253966         2.334257         1.016528
 H        -3.215450         3.555933         0.448638
 H        -1.567184         4.276621         1.146213
 H        -1.832053         3.038911        -1.580871
 H        -0.356347         3.011168        -0.653326
 H        -2.452316         0.884016        -0.435178
 H        -1.571432        -0.222496         2.835161
 H        -2.488050        -0.743001         1.334883
