19
Iteration:  2594charge 0 multiplicity 1
 O         0.223100        -0.466215         0.452398
 C        -0.652994         0.539294         0.749435
 C        -0.418737         1.783275         1.673983
 C        -1.804857         2.047432         1.198581
 C        -2.189882         3.456325         0.715901
 C        -1.346390         3.011009        -0.574301
 C        -1.501180         1.518082        -0.202957
 O        -2.735054         1.167044         1.794278
 C        -1.869098        -0.069312         1.498590
 H         1.214175        -0.097778         0.374730
 H        -0.158327         1.557549         2.740861
 H         0.285146         2.529055         1.269353
 H        -3.211078         3.401112         0.391065
 H        -1.867167         4.236150         1.436561
 H        -1.950402         3.076455        -1.559148
 H        -0.343945         3.376060        -0.415719
 H        -2.136565         0.884038        -0.854333
 H        -1.759855        -0.717000         2.445884
 H        -2.503768        -0.626294         0.872697
