19
Iteration:   222
 O         0.233342        -0.388600         0.268803
 C        -0.658524         0.605175         0.756936
 C        -0.386753         1.825813         1.735808
 C        -1.843684         2.086956         1.294986
 C        -2.136069         3.453038         0.635870
 C        -1.342172         2.897187        -0.709925
 C        -1.491179         1.476123        -0.093621
 O        -2.756006         1.096943         1.901702
 C        -1.868402        -0.024892         1.562833
 H         0.463477        -1.004239         1.099609
 H        -0.073172         1.663494         2.753054
 H         0.244866         2.842370         1.301554
 H        -3.163755         3.480723         0.277311
 H        -1.820467         4.407502         1.096917
 H        -1.898743         2.959774        -1.689940
 H        -0.332571         3.248852        -1.048854
 H        -2.338188         0.902518        -0.577655
 H        -1.666400        -0.709058         2.363193
 H        -2.348344        -0.688601         0.862349
