19
Iteration:  4756
 O         0.281617        -0.345578         0.239336
 C        -0.715655         0.534074         0.794838
 C        -0.413965         1.783336         1.662265
 C        -1.843563         2.124868         1.211417
 C        -2.181511         3.470671         0.563825
 C        -1.370911         2.863836        -0.684281
 C        -1.543248         1.407320        -0.202561
 O        -2.611403         1.162565         1.940729
 C        -1.876545        -0.014950         1.733873
 H         0.668219        -1.021125         0.911401
 H        -0.354324         1.745322         2.759404
 H         0.333417         2.574510         1.489354
 H        -3.175003         3.462860         0.203828
 H        -2.079702         4.308272         1.157749
 H        -1.904360         3.269895        -1.618965
 H        -0.290148         3.254549        -0.852340
 H        -2.451377         0.771154        -0.551854
 H        -1.530553        -0.389951         2.692825
 H        -2.606043        -0.806366         1.327852
