19
Iteration:  2893charge 0 multiplicity 1
 O         0.290221        -0.414524         0.416899
 C        -0.632292         0.575405         0.810463
 C        -0.425647         1.740018         1.702187
 C        -1.899155         2.091006         1.164313
 C        -2.226074         3.406026         0.638349
 C        -1.273250         3.111819        -0.613211
 C        -1.408704         1.470712        -0.184503
 O        -2.723731         1.078138         1.915859
 C        -1.912268        -0.024529         1.516545
 H        -0.235307        -0.790440        -0.239152
 H        -0.348947         1.540294         2.740814
 H         0.361045         2.350781         1.291276
 H        -3.217249         3.398657         0.298370
 H        -1.864308         4.257602         1.289747
 H        -1.731808         3.426551        -1.586598
 H        -0.285190         3.481534        -0.646147
 H        -2.121315         0.973765        -0.803470
 H        -1.823334        -0.718463         2.409663
 H        -2.479020        -0.715365         0.879994
