19
Iteration:   485
 O         0.252958        -0.343980         0.333377
 C        -0.675754         0.596854         0.741235
 C        -0.485886         1.818007         1.633039
 C        -1.913986         2.053099         1.154805
 C        -2.169439         3.452140         0.635177
 C        -1.286674         2.902726        -0.584731
 C        -1.551159         1.426864        -0.211151
 O        -2.642727         1.122177         1.984511
 C        -1.875783        -0.037349         1.558900
 H         0.706456        -0.711765         1.029723
 H        -0.342017         1.623624         2.718807
 H         0.323467         2.497140         1.266636
 H        -3.267080         3.682742         0.619309
 H        -1.631969         4.211371         1.199673
 H        -1.513832         3.010449        -1.609247
 H        -0.236513         3.270857        -0.643796
 H        -2.262416         0.979709        -0.782647
 H        -1.455276        -0.738600         2.498480
 H        -2.600306        -0.555281         0.847038
