19
Iteration:  4953
 O         0.271218        -0.455317         0.323457
 C        -0.647304         0.566997         0.716702
 C        -0.339762         1.819733         1.632381
 C        -1.863940         2.134819         1.220016
 C        -2.196556         3.454763         0.552217
 C        -1.382737         2.982519        -0.686531
 C        -1.513411         1.398292        -0.233808
 O        -2.712799         1.172543         1.946030
 C        -1.858597        -0.037345         1.757848
 H         0.488792        -1.086041         1.172070
 H        -0.199429         1.634128         2.709858
 H         0.489706         2.357828         1.181780
 H        -3.253973         3.271861         0.373738
 H        -2.012407         4.304572         1.108505
 H        -1.999314         3.090166        -1.663178
 H        -0.380500         3.392297        -0.531400
 H        -2.535637         1.112908        -0.746884
 H        -1.357575        -0.289860         2.638300
 H        -2.560055        -0.830006         1.293526
