19
Iteration:  2897charge 0 multiplicity 1
 O         0.293352        -0.405140         0.397572
 C        -0.654713         0.612243         0.806874
 C        -0.465185         1.761067         1.721451
 C        -1.910785         2.094113         1.171636
 C        -2.212028         3.431183         0.648342
 C        -1.244235         3.073766        -0.604958
 C        -1.399468         1.428023        -0.188853
 O        -2.716869         1.099226         1.907208
 C        -1.889655        -0.040419         1.527453
 H        -0.385230        -0.877473        -0.285523
 H        -0.313684         1.370764         2.790232
 H         0.385231         2.310598         1.352691
 H        -3.287628         3.358730         0.309868
 H        -1.931891         4.247190         1.193302
 H        -1.835683         3.328821        -1.556109
 H        -0.229694         3.505655        -0.533845
 H        -2.228379         0.960152        -0.884001
 H        -1.624040        -0.657564         2.355452
 H        -2.468791        -0.700734         0.766915
