19
Iteration:  4488charge 0 multiplicity 1
 O         0.267878        -0.408972         0.291796
 C        -0.667057         0.524835         0.742443
 C        -0.449571         1.788386         1.638085
 C        -1.915840         2.054376         1.191192
 C        -2.168925         3.469716         0.545494
 C        -1.319763         2.972689        -0.710614
 C        -1.584992         1.407874        -0.168134
 O        -2.670729         1.187502         2.065508
 C        -1.823268        -0.051553         1.663277
 H         1.047629        -0.352402         0.818829
 H        -0.235601         1.650295         2.702924
 H         0.298815         2.466018         1.150672
 H        -3.270969         3.586642         0.348632
 H        -1.835081         4.265304         1.026177
 H        -1.713865         2.963557        -1.800346
 H        -0.357551         3.411323        -0.587281
 H        -2.326887         0.921772        -0.759302
 H        -1.532496        -0.363810         2.708889
 H        -2.494527        -0.735405         1.213337
