19
Iteration:  2194
 O         0.242237        -0.408814         0.367915
 C        -0.617324         0.532251         0.789658
 C        -0.429149         1.719891         1.728604
 C        -1.883256         2.092481         1.273020
 C        -2.117477         3.483632         0.594002
 C        -1.321393         3.037349        -0.656173
 C        -1.457924         1.512660        -0.121590
 O        -2.756593         1.086747         1.829458
 C        -1.897579        -0.119065         1.573082
 H         0.561473        -0.076126        -0.554505
 H        -0.275759         1.524349         2.783854
 H         0.307160         2.611097         1.661632
 H        -3.098926         3.633347         0.270497
 H        -1.889187         4.395675         1.274819
 H        -1.940458         3.199804        -1.548360
 H        -0.198442         3.416365        -0.627954
 H        -2.211750         1.063072        -0.784492
 H        -1.828042        -0.718843         2.609123
 H        -2.523182        -0.745333         0.953661
