19
Iteration:  1278charge 0 multiplicity 1
 O         0.343717        -0.323877         0.319316
 C        -0.728445         0.518736         0.770352
 C        -0.414827         1.740582         1.662496
 C        -1.913708         2.088120         1.183541
 C        -2.173093         3.490626         0.644946
 C        -1.305823         2.943067        -0.660875
 C        -1.544249         1.471985        -0.155947
 O        -2.700672         1.156061         1.970978
 C        -1.898224        -0.103781         1.518588
 H         0.622695        -0.780443         1.219292
 H        -0.193316         1.535185         2.736637
 H         0.453765         2.397407         1.223547
 H        -3.156920         3.752839         0.439806
 H        -1.765322         4.200309         1.290783
 H        -1.854205         3.071448        -1.558863
 H        -0.173855         3.332699        -0.719729
 H        -2.352879         1.097433        -0.872297
 H        -1.621644        -0.569734         2.527710
 H        -2.524059        -0.873071         0.868193
