19
Iteration:   955
 O         0.293291        -0.310939         0.270199
 C        -0.741549         0.435241         0.693140
 C        -0.425229         1.688791         1.598983
 C        -1.867473         2.129732         1.164116
 C        -2.276997         3.479408         0.608674
 C        -1.182778         3.012787        -0.588445
 C        -1.571444         1.519709        -0.214765
 O        -2.693600         1.161406         2.059836
 C        -1.862176        -0.174192         1.671187
 H         0.909688        -0.686955         1.034306
 H        -0.469150         1.562240         2.658547
 H         0.467064         2.387202         1.297552
 H        -3.231093         3.482224         0.064684
 H        -2.090391         4.456894         1.129286
 H        -1.543025         3.216717        -1.601013
 H        -0.129671         3.596581        -0.608803
 H        -2.381101         0.984540        -0.846488
 H        -1.419656        -0.542638         2.651485
 H        -2.594648        -0.893480         1.104706
