19
Iteration:  4206
 O         0.315728        -0.331415         0.370638
 C        -0.673831         0.568704         0.755131
 C        -0.456074         1.805834         1.643813
 C        -1.917708         2.139894         1.147354
 C        -2.221522         3.463001         0.568754
 C        -1.283787         2.870713        -0.660373
 C        -1.648600         1.465929        -0.208848
 O        -2.638981         1.157860         2.035871
 C        -1.777375        -0.142679         1.609658
 H        -0.113935        -1.277669         0.525295
 H        -0.290546         1.669853         2.698704
 H         0.459362         2.412283         1.569904
 H        -3.145705         3.772697         0.232795
 H        -1.862101         4.308250         1.201777
 H        -1.537747         3.180144        -1.722256
 H        -0.318508         3.180588        -0.471523
 H        -2.465188         0.999887        -0.869574
 H        -1.265579        -0.524433         2.488386
 H        -2.554448        -0.729310         0.939177
