19
Iteration:  3871
 O         0.323241        -0.374102         0.385869
 C        -0.668844         0.557487         0.764456
 C        -0.427008         1.760505         1.692855
 C        -1.873834         2.099350         1.139676
 C        -2.182921         3.457421         0.528716
 C        -1.367836         3.028013        -0.584890
 C        -1.504993         1.418555        -0.150664
 O        -2.632015         1.140634         1.932381
 C        -1.894072        -0.077491         1.583983
 H        -0.260576        -1.103516         0.040500
 H        -0.361234         1.717623         2.802840
 H         0.309146         2.447025         1.287890
 H        -3.271623         3.586909         0.496444
 H        -1.909145         4.323389         1.076589
 H        -1.912838         3.225672        -1.561107
 H        -0.377610         3.346404        -0.415807
 H        -2.364292         0.977588        -0.593306
 H        -1.401641        -0.584960         2.517095
 H        -2.482118        -0.856072         0.928731
