19
Iteration:    35charge 0 multiplicity 1
 O         0.206595        -0.319585         0.209412
 C        -0.621222         0.552589         0.822783
 C        -0.349378         1.738461         1.740945
 C        -1.883114         2.142066         1.266627
 C        -2.244981         3.445779         0.523072
 C        -1.331265         2.872714        -0.636256
 C        -1.431079         1.406746        -0.079818
 O        -2.718407         1.191567         1.869109
 C        -1.913957        -0.024642         1.622565
 H         0.629744        -1.064957         0.821306
 H        -0.171561         1.558218         2.734993
 H         0.453043         2.501211         1.346142
 H        -3.324999         3.427859         0.415321
 H        -1.916300         4.396400         0.967269
 H        -1.544878         3.058308        -1.736484
 H        -0.366689         3.253438        -0.417846
 H        -2.105125         0.810596        -0.742147
 H        -1.619738        -0.497587         2.557310
 H        -2.564544        -0.725005         1.033859
