19
Iteration:  3905
 O         0.394876        -0.240622         0.376656
 C        -0.724493         0.528560         0.736580
 C        -0.414988         1.707409         1.594598
 C        -1.911373         2.073544         1.155151
 C        -2.095336         3.493762         0.648533
 C        -1.291837         2.976115        -0.576745
 C        -1.583418         1.396424        -0.156455
 O        -2.749549         1.121838         1.951476
 C        -1.892731        -0.049422         1.573632
 H         0.119197        -1.213538         0.679546
 H        -0.155479         1.737009         2.623313
 H         0.324937         2.269408         0.993837
 H        -3.132618         3.569320         0.265263
 H        -1.811469         4.267114         1.276760
 H        -1.793327         3.174687        -1.522762
 H        -0.346820         3.311424        -0.926536
 H        -2.369558         0.845297        -0.581501
 H        -1.595723        -0.526335         2.577260
 H        -2.606058        -0.775261         1.023990
