19
Iteration:   214
 O         0.252378        -0.383324         0.260560
 C        -0.669889         0.569604         0.791684
 C        -0.339526         1.862538         1.761453
 C        -1.861707         2.096130         1.252416
 C        -2.152995         3.445913         0.603669
 C        -1.363008         2.893279        -0.696006
 C        -1.504033         1.525679        -0.109907
 O        -2.684626         1.142120         1.859267
 C        -1.909918        -0.138107         1.596716
 H         0.519536        -1.000543         1.037859
 H        -0.306703         1.646514         2.857594
 H         0.264726         2.606534         1.303736
 H        -3.195121         3.590065         0.250264
 H        -1.835285         4.334947         1.145053
 H        -2.034058         2.991590        -1.503543
 H        -0.259603         3.280852        -0.842214
 H        -2.440383         1.005083        -0.639163
 H        -1.565440        -0.690535         2.463527
 H        -2.630890        -0.695053         0.964645
