19
Iteration:  1963charge 0 multiplicity 1
 O         0.219453        -0.443920         0.450540
 C        -0.688607         0.600895         0.755967
 C        -0.399799         1.832537         1.640345
 C        -1.969472         2.066641         1.176028
 C        -2.169869         3.502365         0.623778
 C        -1.217827         3.008121        -0.559496
 C        -1.592922         1.514244        -0.211008
 O        -2.670000         0.992125         1.946910
 C        -1.904951        -0.098395         1.478029
 H         1.204404        -0.092312         0.336032
 H        -0.002693         1.719749         2.730017
 H         0.258598         2.492127         1.163987
 H        -3.100354         3.707335         0.132675
 H        -1.670491         4.257649         1.326430
 H        -1.563332         3.347446        -1.624707
 H        -0.213886         3.309162        -0.407033
 H        -2.387149         1.001332        -0.798099
 H        -1.468249        -0.719994         2.390690
 H        -2.553106        -0.652350         0.912666
