19
Iteration:  3752
 O         0.288016        -0.445928         0.332236
 C        -0.740699         0.553752         0.774721
 C        -0.425805         1.820371         1.589565
 C        -1.900492         2.096025         1.224321
 C        -2.166710         3.382742         0.585770
 C        -1.293276         2.965412        -0.587731
 C        -1.567529         1.460839        -0.224938
 O        -2.650920         1.137598         1.936310
 C        -1.877226        -0.032644         1.646675
 H         1.185209        -0.104345         0.684612
 H        -0.363926         1.730859         2.698861
 H         0.257056         2.515377         1.187448
 H        -3.297871         3.653703         0.373863
 H        -1.802730         4.218264         1.168357
 H        -1.874221         3.174116        -1.517483
 H        -0.328911         3.376892        -0.559411
 H        -2.384219         0.933899        -0.707143
 H        -1.440844        -0.582724         2.487827
 H        -2.499876        -0.679339         1.143787
