19
Iteration:  3104
 O         0.336974        -0.353731         0.325540
 C        -0.646149         0.570148         0.764693
 C        -0.409234         1.749827         1.766308
 C        -1.896606         2.073007         1.159607
 C        -2.097363         3.413382         0.646829
 C        -1.366436         2.945386        -0.629396
 C        -1.524825         1.397160        -0.203411
 O        -2.765438         1.159654         1.926869
 C        -1.946404        -0.026124         1.542029
 H         0.995906        -0.147741         0.983389
 H        -0.301338         1.518077         2.828407
 H         0.299423         2.488124         1.211803
 H        -3.232948         3.661452         0.414079
 H        -1.433917         4.253526         1.065824
 H        -1.799242         3.306514        -1.540774
 H        -0.330960         3.326298        -0.746873
 H        -2.413303         0.875114        -0.736476
 H        -1.659880        -0.648870         2.379997
 H        -2.642951        -0.735202         0.901366
