19
Iteration:  4584charge 0 multiplicity 1
 O         0.324659        -0.273696         0.276903
 C        -0.724935         0.566658         0.829530
 C        -0.327473         1.811227         1.659444
 C        -1.877631         2.104483         1.180578
 C        -2.129832         3.425396         0.488217
 C        -1.337340         2.880534        -0.638746
 C        -1.683251         1.343519        -0.153844
 O        -2.621101         1.174263         1.971692
 C        -1.929723        -0.041497         1.666910
 H         0.389984        -1.155332         0.898798
 H        -0.171726         1.733802         2.741199
 H         0.379611         2.368630         1.028579
 H        -3.253196         3.423046         0.414360
 H        -1.780371         4.381780         1.064205
 H        -1.892850         3.233592        -1.536015
 H        -0.389356         3.231397        -0.556286
 H        -2.485559         0.909596        -0.697596
 H        -1.516861        -0.561062         2.583135
 H        -2.426825        -0.783641         1.054532
