19
Iteration:  2872
 O         0.386375        -0.474606         0.542250
 C        -0.720845         0.514709         0.723824
 C        -0.389282         1.782599         1.663675
 C        -1.855322         2.103344         1.216165
 C        -2.249271         3.495750         0.673408
 C        -1.311734         3.048577        -0.539884
 C        -1.492239         1.528622        -0.213925
 O        -2.678649         1.159023         1.835497
 C        -1.975854        -0.136300         1.480205
 H         0.311858        -0.806688        -0.395757
 H        -0.062680         1.526876         2.652552
 H         0.337863         2.352371         1.136640
 H        -3.261699         3.393010         0.424359
 H        -1.894487         4.361138         1.117016
 H        -1.780425         3.243186        -1.549707
 H        -0.386042         3.544703        -0.489393
 H        -2.390764         1.243121        -0.809969
 H        -1.615618        -0.784964         2.325993
 H        -2.657674        -0.802956         0.874142
