19
Iteration:  3882charge 0 multiplicity 1
 O         0.353891        -0.349816         0.373925
 C        -0.639223         0.565840         0.691313
 C        -0.408206         1.826417         1.666452
 C        -1.867092         2.043545         1.243804
 C        -2.212885         3.413876         0.689512
 C        -1.346708         2.962371        -0.638722
 C        -1.539408         1.412750        -0.199080
 O        -2.691253         1.179941         1.900555
 C        -1.917063        -0.047269         1.593406
 H         0.016499        -1.188678         0.285680
 H        -0.246170         1.576863         2.736416
 H         0.359520         2.516934         1.325037
 H        -3.195846         3.646319         0.318881
 H        -1.701025         4.180923         1.203360
 H        -1.614544         3.177376        -1.722409
 H        -0.371556         3.377155        -0.696655
 H        -2.235556         0.810107        -0.727569
 H        -1.717290        -0.556340         2.620893
 H        -2.740159        -0.679891         1.066471
