19
Iteration:  2242
 O         0.264886        -0.412985         0.382956
 C        -0.683413         0.611066         0.731661
 C        -0.390884         1.764423         1.642671
 C        -1.905388         2.047869         1.195335
 C        -2.147801         3.420912         0.615420
 C        -1.173738         3.005029        -0.517256
 C        -1.581661         1.478349        -0.192151
 O        -2.746687         1.097870         1.948418
 C        -1.943835        -0.038870         1.520977
 H         0.992326        -0.024561         0.002800
 H        -0.152286         1.563889         2.698646
 H         0.335959         2.440489         1.393799
 H        -3.252622         3.406721         0.196640
 H        -2.036566         4.251676         1.259981
 H        -1.642820         3.197130        -1.479006
 H        -0.201634         3.242872        -0.386994
 H        -2.394763         1.194916        -0.822732
 H        -1.552040        -0.691174         2.419258
 H        -2.486617        -0.741381         0.820760
