19
Iteration:  4681charge 0 multiplicity 1
 O         0.311904        -0.360432         0.314395
 C        -0.710099         0.541213         0.759364
 C        -0.331443         1.745679         1.662014
 C        -1.812683         2.104807         1.171889
 C        -2.296092         3.399973         0.614365
 C        -1.328057         2.925043        -0.706738
 C        -1.617183         1.463049        -0.207359
 O        -2.605171         1.195761         1.996666
 C        -1.964957        -0.007334         1.685054
 H         1.077772        -0.554713         1.005364
 H        -0.183808         1.491708         2.718487
 H         0.535207         2.284698         1.192645
 H        -3.371634         3.457854         0.310692
 H        -1.884406         4.461967         0.874337
 H        -1.734026         2.941450        -1.771643
 H        -0.286038         3.187166        -0.575026
 H        -2.370988         0.864453        -0.763654
 H        -1.753815        -0.592197         2.579022
 H        -2.626095        -0.703435         1.070659
