19
Iteration:  3619charge 0 multiplicity 1
 O         0.349428        -0.290060         0.359055
 C        -0.749166         0.519872         0.731181
 C        -0.413339         1.814027         1.627397
 C        -1.879233         2.113153         1.242472
 C        -2.150976         3.462422         0.574055
 C        -1.316981         2.918617        -0.608093
 C        -1.509288         1.472908        -0.189714
 O        -2.736129         1.124795         1.985005
 C        -1.872010        -0.095247         1.590523
 H         0.058932        -1.292139         0.210099
 H        -0.382071         1.577124         2.700847
 H         0.585569         2.154229         1.178160
 H        -3.283440         3.531505         0.489615
 H        -1.897708         4.511404         1.046541
 H        -1.747591         3.011894        -1.665177
 H        -0.222810         3.238645        -0.482365
 H        -2.286768         0.987732        -0.775905
 H        -1.552682        -0.503822         2.602364
 H        -2.406175        -0.765277         0.941200
