19
Iteration:   133charge 0 multiplicity 1
 O         0.236485        -0.418091         0.253428
 C        -0.688524         0.554118         0.829222
 C        -0.385494         1.735492         1.794670
 C        -1.894031         2.085039         1.177091
 C        -2.192934         3.493829         0.565379
 C        -1.368557         2.989655        -0.725172
 C        -1.481447         1.474657        -0.109169
 O        -2.670021         1.144329         1.930084
 C        -1.899567        -0.083357         1.611822
 H         1.094104        -0.491547         0.849933
 H        -0.359096         1.563955         2.799402
 H         0.587418         2.358192         1.685247
 H        -3.189807         3.727036         0.209888
 H        -1.753817         4.410106         0.992343
 H        -1.932230         3.000798        -1.710232
 H        -0.484742         3.442371        -0.994655
 H        -2.183409         0.930420        -0.713238
 H        -1.498171        -0.486875         2.502858
 H        -2.438493        -0.801456         1.074769
