19
Iteration:  3811charge 0 multiplicity 1
 O         0.339134        -0.386550         0.360538
 C        -0.717605         0.573755         0.820338
 C        -0.407721         1.754129         1.651175
 C        -1.890884         2.112426         1.145797
 C        -2.280285         3.495583         0.663119
 C        -1.308792         2.902857        -0.638491
 C        -1.503482         1.357930        -0.193032
 O        -2.620179         1.216420         1.928888
 C        -1.937397        -0.086032         1.639710
 H         0.575833        -0.197129        -0.488328
 H        -0.336629         1.613441         2.716591
 H         0.435923         2.383610         1.253477
 H        -3.307453         3.570020         0.454199
 H        -1.891461         4.243133         1.369045
 H        -1.660412         3.185275        -1.571249
 H        -0.255730         3.302488        -0.775624
 H        -2.306121         0.844171        -0.824960
 H        -1.608568        -0.590405         2.492036
 H        -2.608178        -0.692808         1.048024
