19
Iteration:  1647charge 0 multiplicity 1
 O         0.302633        -0.365695         0.330565
 C        -0.736096         0.498825         0.710826
 C        -0.467234         1.643334         1.642810
 C        -1.926965         2.040722         1.225646
 C        -2.190785         3.413498         0.670254
 C        -1.220434         3.020604        -0.568122
 C        -1.490532         1.517924        -0.283510
 O        -2.698439         1.169348         1.983941
 C        -1.933490        -0.080974         1.541696
 H         1.075803         0.088929         0.511661
 H        -0.276610         1.518299         2.716698
 H         0.362931         2.409758         1.327805
 H        -3.133120         3.679412         0.475357
 H        -1.869458         4.319784         1.227356
 H        -1.545697         3.309030        -1.533239
 H        -0.260911         3.438342        -0.311203
 H        -2.188581         1.127612        -0.942640
 H        -1.559471        -0.396013         2.566015
 H        -2.706853        -0.741394         1.012978
