19
Iteration:  2914
 O         0.279552        -0.330098         0.341069
 C        -0.693204         0.548870         0.701638
 C        -0.451365         1.775978         1.786178
 C        -1.895807         2.076518         1.233447
 C        -2.194911         3.445100         0.594882
 C        -1.243849         2.914089        -0.520072
 C        -1.493183         1.523255        -0.178439
 O        -2.699138         1.117721         1.871064
 C        -1.858713        -0.064657         1.509217
 H        -0.062968        -1.224946        -0.114612
 H        -0.575273         1.653846         2.829632
 H         0.198280         2.633313         1.592822
 H        -3.168896         3.564762         0.163865
 H        -1.862793         4.400478         1.267602
 H        -1.437316         3.166454        -1.561450
 H        -0.206376         3.225526        -0.510713
 H        -2.160057         1.034878        -0.806808
 H        -1.563321        -0.586053         2.482739
 H        -2.488539        -0.828792         1.101416
