19
Iteration:   433charge 0 multiplicity 1
 O         0.229349        -0.342424         0.253329
 C        -0.680721         0.531309         0.793196
 C        -0.319451         1.808328         1.710754
 C        -1.862811         2.088575         1.271515
 C        -2.205329         3.401479         0.581620
 C        -1.337404         2.940916        -0.592738
 C        -1.524698         1.414942        -0.132714
 O        -2.725349         1.190735         1.848230
 C        -1.850764        -0.026336         1.578588
 H         0.730039        -0.826111         0.886869
 H        -0.128270         1.564265         2.841682
 H         0.358862         2.476606         1.355605
 H        -3.271213         3.343135         0.262587
 H        -2.026124         4.301904         1.150571
 H        -1.666524         3.200827        -1.572549
 H        -0.244668         3.203710        -0.671218
 H        -2.413113         0.893471        -0.613889
 H        -1.679133        -0.517154         2.494344
 H        -2.368232        -0.850285         1.072242
