19
Iteration:  4939charge 0 multiplicity 1
 O         0.263596        -0.444817         0.319794
 C        -0.703882         0.494548         0.805513
 C        -0.349459         1.753016         1.581128
 C        -1.784420         2.071636         1.225452
 C        -2.278577         3.359337         0.578507
 C        -1.388050         2.958926        -0.657927
 C        -1.509227         1.496912        -0.134643
 O        -2.674463         1.230820         1.919174
 C        -1.861567         0.065103         1.668379
 H         0.580616        -0.916541         1.017334
 H        -0.060096         1.677657         2.643874
 H         0.307136         2.511290         1.071094
 H        -3.369451         3.321447         0.248768
 H        -2.145058         4.462222         0.985648
 H        -1.757977         3.187286        -1.630481
 H        -0.355827         3.400649        -0.817054
 H        -2.162576         0.840035        -0.696476
 H        -1.541504        -0.376226         2.627358
 H        -2.434820        -0.808225         1.288703
