19
Iteration:   260charge 0 multiplicity 1
 O         0.310344        -0.341889         0.288224
 C        -0.721484         0.454464         0.736149
 C        -0.505867         1.802579         1.614994
 C        -1.867525         2.094953         1.134807
 C        -2.221215         3.491140         0.647016
 C        -1.195512         3.019114        -0.644887
 C        -1.569202         1.421891        -0.205161
 O        -2.578925         1.141467         1.973818
 C        -1.934990        -0.102305         1.681333
 H         0.652772        -0.728382         1.115533
 H        -0.452284         1.571570         2.740764
 H         0.195682         2.381991         1.236134
 H        -3.292282         3.524362         0.341895
 H        -2.061182         4.315716         1.342078
 H        -1.697243         3.130163        -1.596126
 H        -0.122580         3.305786        -0.531406
 H        -2.489138         1.044017        -0.785894
 H        -1.679891        -0.480447         2.684200
 H        -2.576390        -0.770431         1.042663
