19
Iteration:  2229charge 0 multiplicity 1
 O         0.199459        -0.421124         0.342084
 C        -0.655504         0.587870         0.758990
 C        -0.459548         1.811291         1.770261
 C        -1.920330         2.060450         1.219941
 C        -2.149061         3.446554         0.640975
 C        -1.277698         2.942549        -0.577439
 C        -1.481917         1.473614        -0.182659
 O        -2.680022         1.121372         1.907484
 C        -1.885471        -0.075808         1.498228
 H         0.893315        -0.006942        -0.328320
 H        -0.543583         1.423187         2.780243
 H         0.195881         2.626139         1.488993
 H        -3.171798         3.553408         0.252575
 H        -1.699864         4.330188         1.123145
 H        -1.498706         3.329394        -1.569735
 H        -0.194961         3.307018        -0.514269
 H        -2.204032         0.876265        -0.676753
 H        -1.679920        -0.720395         2.510791
 H        -2.473579        -0.617978         0.766379
