19
Iteration:  4054charge 0 multiplicity 1
 O         0.293458        -0.395943         0.329334
 C        -0.696622         0.537216         0.730368
 C        -0.408049         1.812508         1.718282
 C        -1.868637         2.072384         1.254205
 C        -2.155311         3.504686         0.579546
 C        -1.335571         2.966254        -0.696744
 C        -1.561446         1.378398        -0.150282
 O        -2.724331         1.150394         1.946096
 C        -1.884641        -0.066127         1.641356
 H         1.162572         0.098920         0.186393
 H        -0.313697         1.507524         2.795634
 H         0.346418         2.365850         1.106562
 H        -3.220628         3.670704         0.356512
 H        -1.613188         4.462063         1.124853
 H        -1.962635         2.906436        -1.665544
 H        -0.317679         3.355796        -0.685703
 H        -2.368521         0.733489        -0.788733
 H        -1.536118        -0.517931         2.533231
 H        -2.380295        -0.851999         1.073788
