19
Iteration:  4672
 O         0.301259        -0.419013         0.287154
 C        -0.692856         0.582727         0.782852
 C        -0.274843         1.760900         1.624518
 C        -1.839667         2.120157         1.218343
 C        -2.216958         3.418126         0.516134
 C        -1.352986         2.901441        -0.702179
 C        -1.561855         1.471548        -0.174541
 O        -2.678362         1.185618         2.025857
 C        -1.957296        -0.046604         1.670727
 H         0.885172        -0.442846         1.161075
 H        -0.156377         1.484990         2.673770
 H         0.367197         2.599300         1.231701
 H        -3.332166         3.130622         0.358463
 H        -2.157796         4.449283         1.158117
 H        -1.814256         3.203469        -1.684042
 H        -0.447980         3.361903        -0.649302
 H        -2.338825         0.973408        -0.701614
 H        -1.679636        -0.647198         2.585915
 H        -2.547278        -0.610493         0.985088
