19
Iteration:  1602charge 0 multiplicity 1
 O         0.247526        -0.365407         0.226765
 C        -0.689048         0.644751         0.757812
 C        -0.446812         1.779920         1.808107
 C        -1.858576         2.045276         1.216439
 C        -2.177450         3.431697         0.609026
 C        -1.293979         2.928615        -0.588127
 C        -1.482642         1.523009        -0.110117
 O        -2.697063         1.080182         1.877997
 C        -1.895296        -0.014596         1.539918
 H        -0.007679        -1.141482         0.664802
 H        -0.113850         1.610253         2.765108
 H         0.421210         2.437456         1.368752
 H        -3.149582         3.597252         0.379299
 H        -1.902778         4.276976         1.218277
 H        -1.668780         3.112124        -1.541173
 H        -0.238198         3.148559        -0.497705
 H        -2.167797         0.986737        -0.643001
 H        -1.350084        -0.625799         2.362694
 H        -2.522098        -0.630500         0.806211
