19
Iteration:  1778charge 0 multiplicity 1
 O         0.333207        -0.342506         0.409781
 C        -0.741468         0.625930         0.749486
 C        -0.473271         1.754425         1.750329
 C        -1.900006         2.087677         1.171708
 C        -2.108979         3.466176         0.633250
 C        -1.258780         2.994857        -0.527960
 C        -1.534766         1.471005        -0.218489
 O        -2.675093         1.059472         1.933497
 C        -1.923616        -0.080291         1.459539
 H        -0.120094        -1.070385        -0.179700
 H        -0.569483         1.593524         2.848020
 H         0.204529         2.366677         1.245518
 H        -3.112490         3.591611         0.400677
 H        -1.552164         4.255399         1.223130
 H        -1.574861         3.319905        -1.563565
 H        -0.234120         3.260926        -0.570348
 H        -2.266132         0.979844        -0.803199
 H        -1.404154        -0.686366         2.289978
 H        -2.622599        -0.649203         0.770991
