19
Iteration:  4193
 O         0.277714        -0.298583         0.333201
 C        -0.719401         0.564695         0.770201
 C        -0.434504         1.846938         1.668031
 C        -1.933971         2.008876         1.135064
 C        -2.175705         3.479237         0.586157
 C        -1.295479         2.908808        -0.635501
 C        -1.575332         1.411752        -0.211419
 O        -2.589259         1.104547         1.989708
 C        -1.837517         0.012794         1.652021
 H         0.115636        -1.189817         0.505298
 H        -0.565284         1.578243         2.705948
 H         0.172161         2.570422         1.159604
 H        -3.214666         3.667301         0.300116
 H        -1.670510         4.219116         1.152886
 H        -1.573431         3.119880        -1.663899
 H        -0.214634         3.105085        -0.532097
 H        -2.439880         0.965020        -0.660917
 H        -1.589607        -0.601903         2.564868
 H        -2.383334        -0.851230         1.088232
