19
Iteration:  2248charge 0 multiplicity 1
 O         0.271519        -0.404908         0.415103
 C        -0.691732         0.528007         0.681392
 C        -0.373884         1.728342         1.626983
 C        -1.918662         2.099995         1.241942
 C        -2.207102         3.436999         0.616616
 C        -1.176178         3.006070        -0.523170
 C        -1.580817         1.511182        -0.190995
 O        -2.743110         1.089993         1.937568
 C        -1.935947        -0.055056         1.523192
 H         1.044773         0.145988         0.111747
 H        -0.175694         1.646198         2.703960
 H         0.390159         2.420974         1.045515
 H        -3.141895         3.341491         0.175631
 H        -1.965513         4.206837         1.431473
 H        -1.490532         3.297033        -1.541747
 H        -0.013938         3.298244        -0.395743
 H        -2.356722         1.117041        -0.910532
 H        -1.548182        -0.546848         2.416355
 H        -2.609209        -0.693478         0.975059
