19
Iteration:  4929charge 0 multiplicity 1
 O         0.222996        -0.421946         0.314218
 C        -0.662447         0.576115         0.808409
 C        -0.282638         1.764389         1.624213
 C        -1.853136         2.106740         1.191573
 C        -2.337807         3.412761         0.567479
 C        -1.316642         2.914841        -0.684961
 C        -1.499446         1.392130        -0.145696
 O        -2.598374         1.243221         1.930505
 C        -1.914147        -0.039661         1.663836
 H         0.583508        -0.768667         1.060911
 H        -0.096739         1.750110         2.703558
 H         0.322316         2.485906         1.020347
 H        -3.390628         3.344580         0.199492
 H        -2.057190         4.318676         1.189198
 H        -1.897776         3.010154        -1.592573
 H        -0.421832         3.545663        -0.476980
 H        -2.508025         1.042211        -0.545284
 H        -1.539758        -0.444256         2.574037
 H        -2.603053        -0.684750         1.009906
