19
Iteration:  4585
 O         0.329239        -0.274735         0.277548
 C        -0.727375         0.570653         0.830724
 C        -0.327005         1.807584         1.651819
 C        -1.867899         2.107821         1.173090
 C        -2.140148         3.435403         0.500742
 C        -1.324429         2.881331        -0.637685
 C        -1.686234         1.339450        -0.149984
 O        -2.627489         1.174244         1.970225
 C        -1.934983        -0.047526         1.667621
 H         0.377961        -1.121190         0.887485
 H        -0.154662         1.711160         2.719430
 H         0.379349         2.392644         1.020746
 H        -3.260763         3.439478         0.395541
 H        -1.800935         4.335996         1.016805
 H        -1.903645         3.235664        -1.532296
 H        -0.385491         3.215736        -0.567926
 H        -2.479001         0.902079        -0.673166
 H        -1.489305        -0.570406         2.587389
 H        -2.427122        -0.794931         1.103458
