19
Iteration:  1752
 O         0.426606        -0.294136         0.398333
 C        -0.747001         0.573670         0.725457
 C        -0.419192         1.669539         1.583865
 C        -1.940885         2.080076         1.213647
 C        -2.164153         3.522785         0.648516
 C        -1.157927         3.039863        -0.514407
 C        -1.598279         1.522429        -0.162344
 O        -2.703367         1.080335         1.897031
 C        -2.002986        -0.151251         1.586570
 H         0.055352        -1.190504         0.130017
 H        -0.106638         1.470668         2.565014
 H         0.270382         2.376771         1.008555
 H        -3.189865         3.368213         0.173582
 H        -1.902116         4.353873         1.241904
 H        -1.469896         3.244172        -1.497650
 H        -0.055658         3.320282        -0.389553
 H        -2.359219         1.138063        -0.912064
 H        -1.826679        -0.805412         2.392911
 H        -2.634085        -0.666396         0.953381
