19
Iteration:   713charge 0 multiplicity 1
 O         0.242104        -0.351631         0.222604
 C        -0.656695         0.554520         0.814352
 C        -0.360119         1.772112         1.716648
 C        -1.811442         2.107055         1.278116
 C        -2.184456         3.402299         0.621320
 C        -1.349674         2.970671        -0.628467
 C        -1.462850         1.454413        -0.090059
 O        -2.726678         1.119632         1.847361
 C        -1.957626        -0.030743         1.593054
 H         0.872747        -0.881994         0.877840
 H        -0.112060         1.863458         2.857267
 H         0.156157         2.508390         1.171386
 H        -3.313791         3.306534         0.394367
 H        -1.992755         4.380499         1.013186
 H        -1.849494         3.124175        -1.557220
 H        -0.159170         3.189521        -0.817988
 H        -2.373042         1.034222        -0.796205
 H        -1.651545        -0.509066         2.505774
 H        -2.446726        -0.797975         0.930345
