19
Iteration:  1011charge 0 multiplicity 1
 O         0.239475        -0.374118         0.232317
 C        -0.655635         0.505292         0.815743
 C        -0.468085         1.793538         1.763129
 C        -1.844549         2.089759         1.236601
 C        -2.143301         3.462296         0.606172
 C        -1.425006         2.947748        -0.655710
 C        -1.436474         1.527199        -0.103042
 O        -2.659224         1.109102         1.904911
 C        -1.892263        -0.043041         1.535672
 H         0.733610        -0.899819         0.876657
 H        -0.261600         1.845587         2.822797
 H         0.235741         2.475046         1.220469
 H        -3.078818         3.806200         0.276851
 H        -1.575025         4.205298         1.193830
 H        -2.157358         2.903014        -1.572171
 H        -0.440860         3.376002        -0.848924
 H        -2.171983         0.801658        -0.673714
 H        -1.646201        -0.585993         2.469780
 H        -2.553666        -0.810298         1.013368
