19
Iteration:  4001charge 0 multiplicity 1
 O         0.339373        -0.434714         0.499101
 C        -0.673778         0.540720         0.665120
 C        -0.417351         1.699858         1.628132
 C        -1.856312         2.070266         1.190303
 C        -2.276259         3.459859         0.617970
 C        -1.334547         2.979884        -0.605970
 C        -1.534334         1.546716        -0.231698
 O        -2.645891         1.165270         1.975298
 C        -1.908177        -0.050435         1.632290
 H         0.295883        -0.713984        -0.475562
 H        -0.227836         1.475776         2.726200
 H         0.371824         2.334633         1.108064
 H        -3.298703         3.469112         0.271842
 H        -1.974805         4.444363         1.132219
 H        -1.675647         3.180480        -1.741982
 H        -0.393355         3.513658        -0.657910
 H        -2.362146         1.161930        -0.872788
 H        -1.317304        -0.505695         2.427072
 H        -2.517469        -0.745226         1.113392
