19
Iteration:  4479charge 0 multiplicity 1
 O         0.263752        -0.408873         0.258891
 C        -0.755660         0.542980         0.804002
 C        -0.403810         1.883915         1.694921
 C        -1.876594         2.071680         1.198677
 C        -2.196456         3.436834         0.589652
 C        -1.345942         2.897065        -0.744508
 C        -1.582265         1.433888        -0.190325
 O        -2.624346         1.134173         2.041124
 C        -1.882946        -0.054004         1.669129
 H         1.007416        -0.236317         0.814160
 H        -0.378062         1.865842         2.759922
 H         0.474768         2.472625         1.350356
 H        -3.206497         3.780853         0.249564
 H        -1.680619         4.360104         0.992309
 H        -1.525458         3.030039        -1.846648
 H        -0.272567         3.154478        -0.719040
 H        -2.270566         0.930411        -0.868118
 H        -1.342555        -0.544300         2.458111
 H        -2.535669        -0.704035         1.113700
