19
Iteration:  4695
 O         0.299705        -0.309176         0.307676
 C        -0.740122         0.468790         0.781400
 C        -0.435010         1.731306         1.611387
 C        -1.871527         2.097753         1.162939
 C        -2.197067         3.452907         0.536358
 C        -1.367018         2.876743        -0.640466
 C        -1.547822         1.362568        -0.153863
 O        -2.573672         1.260208         2.002157
 C        -1.893588        -0.054550         1.602182
 H         0.842062        -0.387219         1.029898
 H        -0.435840         1.693160         2.712671
 H         0.402644         2.331104         1.151895
 H        -3.334369         3.582044         0.342514
 H        -1.861731         4.264746         1.318599
 H        -1.718321         3.230227        -1.616572
 H        -0.415390         3.251309        -0.532966
 H        -2.442873         0.992094        -0.542637
 H        -1.404563        -0.461394         2.541133
 H        -2.635421        -0.670657         1.193048
