19
Iteration:  3508charge 0 multiplicity 1
 O         0.248806        -0.345576         0.428832
 C        -0.701225         0.557791         0.767524
 C        -0.474896         1.822279         1.688067
 C        -1.898215         2.077527         1.171084
 C        -2.096258         3.488773         0.625209
 C        -1.271811         2.928419        -0.617186
 C        -1.560734         1.390671        -0.174625
 O        -2.725498         1.077827         1.960719
 C        -1.844119        -0.083969         1.515567
 H         0.603049         0.030602        -0.315347
 H        -0.299087         1.655692         2.786844
 H         0.255728         2.551664         1.276238
 H        -3.127931         3.624929         0.405067
 H        -1.523800         4.343228         1.110729
 H        -1.755681         3.336847        -1.495852
 H        -0.154321         3.283166        -0.770679
 H        -2.247713         0.970173        -0.845696
 H        -1.574938        -0.712533         2.482431
 H        -2.402753        -0.716599         0.796377
