19
Iteration:  2894charge 0 multiplicity 1
 O         0.292122        -0.412223         0.412635
 C        -0.637094         0.586815         0.810311
 C        -0.434544         1.746129         1.705507
 C        -1.903419         2.094778         1.165046
 C        -2.223253         3.414457         0.643802
 C        -1.261568         3.104483        -0.610707
 C        -1.404140         1.457878        -0.184422
 O        -2.722515         1.082319         1.914496
 C        -1.905059        -0.026549         1.520030
 H        -0.294084        -0.811099        -0.259692
 H        -0.340038         1.490098         2.751868
 H         0.343863         2.314213         1.313203
 H        -3.221381         3.378031         0.304436
 H        -1.885583         4.214537         1.238934
 H        -1.771905         3.414207        -1.597909
 H        -0.302668         3.473612        -0.621331
 H        -2.157720         0.966364        -0.830193
 H        -1.783882        -0.706501         2.390059
 H        -2.480578        -0.721194         0.850665
