19
Iteration:  4561
 O         0.269782        -0.377127         0.268968
 C        -0.666182         0.611984         0.772531
 C        -0.431082         1.821848         1.671184
 C        -1.850411         2.128860         1.190282
 C        -2.244958         3.466016         0.571904
 C        -1.313230         2.837355        -0.767462
 C        -1.498768         1.398791        -0.119310
 O        -2.617451         1.186261         2.087845
 C        -1.917798        -0.058862         1.596198
 H         0.395284        -0.900916         0.979618
 H        -0.355542         1.506958         2.731145
 H         0.183782         2.615341         1.282364
 H        -3.328109         3.637980         0.383912
 H        -1.725789         4.433805         1.112293
 H        -2.002040         2.893425        -1.591517
 H        -0.340909         3.251588        -0.920014
 H        -2.292318         0.844584        -0.630750
 H        -1.368097        -0.685448         2.328083
 H        -2.546003        -0.742493         0.993315
