19
Iteration:   458charge 0 multiplicity 1
 O         0.348632        -0.358458         0.328854
 C        -0.750284         0.484810         0.698131
 C        -0.431104         1.773326         1.630223
 C        -1.915748         2.094573         1.201891
 C        -2.225196         3.484940         0.569248
 C        -1.235789         3.021620        -0.595708
 C        -1.548047         1.467645        -0.222835
 O        -2.668789         1.079827         2.011037
 C        -1.931991        -0.063060         1.636256
 H         0.729286        -0.746973         1.063672
 H        -0.143055         1.603546         2.685201
 H         0.382613         2.421180         1.163375
 H        -3.262422         3.637186         0.314871
 H        -1.876212         4.326799         1.226826
 H        -1.527755         3.222334        -1.712262
 H        -0.206982         3.340417        -0.679125
 H        -2.450824         1.071716        -0.884191
 H        -1.456964        -0.510321         2.459184
 H        -2.625068        -0.807421         1.277155
