19
Iteration:  4009charge 0 multiplicity 1
 O         0.297704        -0.416823         0.510767
 C        -0.719538         0.551852         0.690480
 C        -0.390627         1.752887         1.575146
 C        -1.885532         2.111445         1.214016
 C        -2.252561         3.459068         0.624978
 C        -1.316788         2.960758        -0.697135
 C        -1.469169         1.507834        -0.224571
 O        -2.655227         1.107386         2.019903
 C        -1.902472        -0.030273         1.556020
 H         0.454295        -0.628083        -0.414678
 H        -0.280090         1.388899         2.640892
 H         0.311352         2.521993         1.284699
 H        -3.339111         3.571392         0.437274
 H        -1.865462         4.337463         1.324689
 H        -1.826015         3.291223        -1.558318
 H        -0.315093         3.338350        -0.463633
 H        -2.300287         0.890107        -0.771157
 H        -1.315387        -0.473633         2.323230
 H        -2.577614        -0.782687         1.207685
