19
Iteration:  1608
 O         0.218546        -0.353737         0.223263
 C        -0.694868         0.611347         0.796674
 C        -0.403353         1.798136         1.760973
 C        -1.901582         2.060634         1.262005
 C        -2.157285         3.460342         0.622759
 C        -1.308434         2.911197        -0.588578
 C        -1.472938         1.507411        -0.121931
 O        -2.705011         1.101145         1.874382
 C        -1.841283        -0.045279         1.487927
 H         0.139904        -1.184829         0.859437
 H        -0.159048         1.629778         2.903364
 H         0.335764         2.453648         1.434440
 H        -3.332073         3.483079         0.314536
 H        -1.759054         4.324528         1.206243
 H        -1.542410         3.166548        -1.700890
 H        -0.263893         3.218711        -0.345469
 H        -2.383381         1.022412        -0.715614
 H        -1.622021        -0.670219         2.358436
 H        -2.290605        -0.774395         0.839387
