19
Iteration:  2276charge 0 multiplicity 1
 O         0.269297        -0.442964         0.421256
 C        -0.677350         0.475077         0.724608
 C        -0.406369         1.688358         1.691433
 C        -1.839885         2.107781         1.121040
 C        -2.187619         3.487077         0.624253
 C        -1.307320         3.121318        -0.529071
 C        -1.550822         1.510047        -0.244471
 O        -2.667589         1.107337         1.883088
 C        -1.923416        -0.093273         1.572943
 H         1.103822        -0.056678         0.516177
 H        -0.498907         1.507712         2.756054
 H         0.390839         2.287036         1.357829
 H        -3.346665         3.521681         0.409887
 H        -1.927432         4.210093         1.351394
 H        -1.657800         3.350036        -1.544157
 H        -0.381023         3.518796        -0.552011
 H        -2.393808         1.121670        -0.851828
 H        -1.589834        -0.594092         2.544061
 H        -2.628648        -0.790728         0.972830
