19
Iteration:  4627charge 0 multiplicity 1
 O         0.211446        -0.387014         0.295523
 C        -0.641316         0.558399         0.725061
 C        -0.398313         1.883178         1.641270
 C        -1.878610         2.057589         1.133331
 C        -2.203797         3.440022         0.556524
 C        -1.346155         3.009582        -0.633092
 C        -1.556544         1.352626        -0.209368
 O        -2.648366         1.149835         2.009710
 C        -1.822028        -0.060323         1.713288
 H         0.517780        -1.028584         1.072725
 H        -0.421736         1.614634         2.706486
 H         0.374313         2.627277         1.345298
 H        -3.200462         3.645037         0.030979
 H        -1.783275         4.432980         1.158937
 H        -1.758102         3.221934        -1.650049
 H        -0.289713         3.145462        -0.662310
 H        -2.380993         0.748425        -0.604288
 H        -1.433065        -0.421228         2.686582
 H        -2.489418        -0.814002         1.263591
