19
Iteration:   692
 O         0.258468        -0.335416         0.246938
 C        -0.699671         0.549124         0.782069
 C        -0.363147         1.775861         1.685094
 C        -1.881002         2.113324         1.195652
 C        -2.269753         3.427261         0.577099
 C        -1.282673         2.945593        -0.582698
 C        -1.487344         1.448419        -0.136855
 O        -2.681865         1.187130         1.928337
 C        -1.891600        -0.146012         1.604483
 H         0.811470        -0.747790         0.857484
 H        -0.260048         1.556495         2.855513
 H         0.475837         2.203027         1.216557
 H        -3.305810         3.629518         0.177807
 H        -1.962727         4.223625         1.236022
 H        -1.554930         3.146872        -1.608343
 H        -0.201335         3.536231        -0.507383
 H        -2.436686         1.048768        -0.752180
 H        -1.662934        -0.576628         2.594896
 H        -2.643417        -0.739880         0.983099
