19
Iteration:  4996charge 0 multiplicity 1
 O         0.284273        -0.285866         0.273972
 C        -0.719115         0.553401         0.738548
 C        -0.401903         1.914706         1.622408
 C        -1.876933         2.084627         1.194849
 C        -2.133420         3.451980         0.558146
 C        -1.259118         2.838430        -0.666055
 C        -1.597678         1.376922        -0.169230
 O        -2.683172         1.148012         2.087510
 C        -1.924165        -0.104010         1.653178
 H         0.583357        -0.865228         1.094391
 H        -0.157013         1.777043         2.686810
 H         0.151331         2.712564         1.164798
 H        -3.103424         3.744459         0.130802
 H        -1.612019         4.300493         0.967797
 H        -1.882512         3.034335        -1.593124
 H        -0.193150         2.953993        -0.837423
 H        -2.339008         0.664932        -0.636497
 H        -1.595347        -0.547423         2.525019
 H        -2.539069        -0.690146         0.894972
