19
Iteration:  2478
 O         0.316426        -0.349066         0.423997
 C        -0.685661         0.598333         0.715167
 C        -0.502194         1.777961         1.694830
 C        -1.903433         2.074719         1.223191
 C        -2.161751         3.478139         0.647033
 C        -1.209059         2.990555        -0.586110
 C        -1.521468         1.502306        -0.227539
 O        -2.696831         1.088520         1.896630
 C        -1.901523        -0.101199         1.532636
 H        -0.094953        -1.045481        -0.258990
 H        -0.415840         1.354143         2.762073
 H         0.314515         2.399825         1.540026
 H        -3.107372         3.542724         0.171665
 H        -1.923122         4.317457         1.390207
 H        -1.557356         3.322460        -1.468846
 H        -0.199639         3.063791        -0.223433
 H        -2.346722         1.132053        -0.880587
 H        -1.485289        -0.605006         2.373234
 H        -2.489247        -0.889339         0.837988
