19
Iteration:  2113
 O         0.178417        -0.445061         0.322322
 C        -0.623298         0.560298         0.795212
 C        -0.402114         1.748268         1.818485
 C        -1.896569         2.111053         1.248216
 C        -2.161368         3.478635         0.660511
 C        -1.328646         2.911434        -0.595261
 C        -1.510759         1.488378        -0.121304
 O        -2.673996         1.140726         1.783071
 C        -1.849985        -0.029016         1.474533
 H         1.193376        -0.064849         0.351974
 H        -0.310040         1.419242         2.884388
 H         0.276363         2.405214         1.421188
 H        -3.277878         3.457657         0.380959
 H        -2.011648         4.365498         1.181832
 H        -1.812081         3.235660        -1.609325
 H        -0.392735         3.321712        -0.726319
 H        -2.314140         0.959100        -0.748194
 H        -1.666106        -0.471539         2.361994
 H        -2.500724        -0.723135         0.810696
