19
Iteration:  4109
 O         0.220570        -0.431606         0.313534
 C        -0.651242         0.571446         0.777841
 C        -0.403728         1.860106         1.555937
 C        -1.939831         2.003433         1.239537
 C        -2.226107         3.451924         0.527317
 C        -1.332919         2.981229        -0.600633
 C        -1.483255         1.466707        -0.161572
 O        -2.632133         1.123206         2.056764
 C        -1.904629        -0.038275         1.588886
 H         1.058273        -0.652173         0.935490
 H        -0.107112         1.818266         2.634022
 H         0.456715         2.519357         1.184190
 H        -3.234797         3.658085         0.102813
 H        -1.983367         4.503146         1.087253
 H        -1.654228         3.125397        -1.709938
 H        -0.299290         3.269019        -0.465731
 H        -2.244486         0.749953        -0.806521
 H        -1.738506        -0.596705         2.487021
 H        -2.388941        -0.753206         0.862988
