19
Iteration:  2211
 O         0.233547        -0.451714         0.297910
 C        -0.724126         0.559935         0.841271
 C        -0.497365         1.803992         1.866098
 C        -1.853137         2.105452         1.196196
 C        -2.150970         3.506367         0.596830
 C        -1.270552         2.985997        -0.625554
 C        -1.418062         1.484938        -0.126695
 O        -2.697440         1.059973         1.874447
 C        -1.903075        -0.081447         1.512658
 H         0.681079        -0.086539        -0.611475
 H        -0.477100         1.712136         2.991469
 H         0.370005         2.265814         1.472830
 H        -3.295542         3.852311         0.495345
 H        -1.846678         4.373856         1.140496
 H        -1.842520         2.926703        -1.572827
 H        -0.361199         3.458037        -0.795227
 H        -2.202522         1.032277        -0.800495
 H        -1.408485        -0.513699         2.292122
 H        -2.404783        -0.875049         0.867449
