19
Iteration:  4287charge 0 multiplicity 1
 O         0.189779        -0.442179         0.408224
 C        -0.658347         0.534946         0.727215
 C        -0.398364         1.859031         1.676106
 C        -1.933030         2.091832         1.220617
 C        -2.143351         3.494568         0.539480
 C        -1.358373         2.977384        -0.762165
 C        -1.595687         1.471652        -0.141669
 O        -2.664788         1.093568         2.036923
 C        -1.807633        -0.090660         1.616841
 H         1.132219        -0.037649         0.178856
 H        -0.204724         1.670970         2.806783
 H         0.300520         2.510153         1.120174
 H        -3.188861         3.547951         0.162548
 H        -1.790363         4.352123         1.102548
 H        -1.743990         3.066316        -1.772546
 H        -0.227918         3.324998        -0.722435
 H        -2.322180         0.839208        -0.774920
 H        -1.391113        -0.594300         2.528353
 H        -2.251412        -0.903004         1.100507
