19
Iteration:  4803charge 0 multiplicity 1
 O         0.215595        -0.429455         0.337828
 C        -0.669716         0.559408         0.754665
 C        -0.411094         1.909728         1.638232
 C        -1.822025         2.060258         1.177521
 C        -2.285109         3.427087         0.549038
 C        -1.286451         2.919222        -0.654890
 C        -1.607412         1.426987        -0.139292
 O        -2.519636         1.156722         2.038053
 C        -1.904742        -0.035740         1.556439
 H         0.571288        -0.745621         1.111632
 H        -0.108375         1.944204         2.675369
 H         0.447384         2.363673         1.157323
 H        -3.394799         3.346164         0.379232
 H        -2.230899         4.421318         1.084284
 H        -1.643678         3.043887        -1.712708
 H        -0.310865         3.211590        -0.735217
 H        -2.409889         1.037519        -0.689398
 H        -1.589140        -0.574669         2.494196
 H        -2.639232        -0.620114         1.001625
