19
Iteration:  4722charge 0 multiplicity 1
 O         0.234981        -0.343322         0.280292
 C        -0.623390         0.588774         0.771484
 C        -0.375241         1.850893         1.608601
 C        -1.991800         2.036346         1.304579
 C        -2.127625         3.502020         0.547426
 C        -1.297395         2.833234        -0.769298
 C        -1.556869         1.419773        -0.174770
 O        -2.695168         1.066546         2.031476
 C        -1.873118         0.009823         1.662475
 H         0.758273        -0.606656         0.965210
 H        -0.202628         1.759092         2.685921
 H         0.130041         2.605492         1.035503
 H        -3.062071         3.871878         0.299876
 H        -1.734617         4.104423         1.266970
 H        -1.788952         3.252124        -1.668729
 H        -0.111698         3.061489        -0.743414
 H        -2.512068         0.941753        -0.662034
 H        -1.418522        -0.379489         2.560688
 H        -2.568861        -0.807150         1.224413
