19
Iteration:   363
 O         0.329693        -0.306797         0.365888
 C        -0.745304         0.576614         0.714827
 C        -0.438712         1.799539         1.569438
 C        -1.835049         2.031227         1.240950
 C        -2.170022         3.384111         0.662813
 C        -1.279526         2.924611        -0.558858
 C        -1.651738         1.396957        -0.212745
 O        -2.672260         1.219929         1.900624
 C        -1.877915        -0.065435         1.585909
 H         0.579347        -0.939771         1.128492
 H        -0.201347         1.490604         2.493350
 H         0.316162         2.655462         1.231018
 H        -3.203080         3.519373         0.344162
 H        -1.738965         4.276671         1.173218
 H        -1.544476         3.295930        -1.581868
 H        -0.292497         3.288557        -0.626335
 H        -2.447247         1.046604        -0.708410
 H        -1.437830        -0.745179         2.428536
 H        -2.587089        -0.797102         1.182905
