19
Iteration:  4125
 O         0.227047        -0.397565         0.315621
 C        -0.683535         0.574568         0.764806
 C        -0.379725         1.803145         1.688967
 C        -1.915667         2.141215         1.166098
 C        -2.249653         3.413429         0.594016
 C        -1.284719         2.941619        -0.715236
 C        -1.509763         1.433367        -0.194659
 O        -2.621592         1.134042         2.041114
 C        -1.854556        -0.036706         1.572013
 H         0.648511        -0.711884         1.190097
 H        -0.294911         1.658508         2.757106
 H         0.196203         2.562786         1.254972
 H        -3.344774         3.429036         0.431626
 H        -1.943392         4.216267         1.157949
 H        -1.875578         3.053090        -1.578740
 H        -0.252318         3.408186        -0.726627
 H        -2.267712         1.095451        -0.759174
 H        -1.475546        -0.781748         2.336042
 H        -2.560119        -0.691885         1.075024
