19
Iteration:  1596charge 0 multiplicity 1
 O         0.266460        -0.352017         0.243106
 C        -0.637098         0.611306         0.725046
 C        -0.439357         1.772496         1.784732
 C        -1.857988         2.094346         1.220728
 C        -2.176817         3.404157         0.618566
 C        -1.253142         2.974730        -0.575333
 C        -1.491393         1.499608        -0.132123
 O        -2.696561         1.078427         1.902657
 C        -1.930976        -0.038968         1.561971
 H        -0.081337        -1.237009         0.502534
 H        -0.286930         1.456959         2.922352
 H         0.229991         2.434944         1.360054
 H        -3.317956         3.637087         0.291471
 H        -1.926319         4.335076         1.234719
 H        -1.820280         3.130485        -1.569961
 H        -0.193659         3.324368        -0.744418
 H        -2.251043         0.838084        -0.751952
 H        -1.424364        -0.482601         2.379156
 H        -2.615863        -0.600297         0.959663
