19
Iteration:  2122
 O         0.184348        -0.473851         0.338826
 C        -0.661079         0.633772         0.740969
 C        -0.448326         1.765985         1.752255
 C        -1.866285         2.113399         1.236049
 C        -2.178693         3.493671         0.625041
 C        -1.285871         2.983804        -0.600514
 C        -1.480306         1.517386        -0.115523
 O        -2.681149         1.081486         1.866727
 C        -1.881501        -0.109813         1.501629
 H         1.192087        -0.195691         0.408393
 H        -0.330929         1.472605         2.803739
 H         0.331831         2.494782         1.535690
 H        -3.290725         3.601566         0.330260
 H        -1.892599         4.442423         1.078251
 H        -1.857201         2.947297        -1.493291
 H        -0.300933         3.389082        -0.691719
 H        -2.213868         0.949648        -0.688623
 H        -1.642012        -0.622831         2.334838
 H        -2.442465        -0.716013         0.775850
