19
Iteration:  4263charge 0 multiplicity 1
 O         0.308550        -0.441795         0.435251
 C        -0.647551         0.487471         0.759807
 C        -0.407315         1.812404         1.667945
 C        -1.849235         2.098242         1.176478
 C        -2.225900         3.446004         0.586488
 C        -1.421201         2.908730        -0.604140
 C        -1.509684         1.387003        -0.205915
 O        -2.635273         1.213815         1.927395
 C        -1.875425         0.040394         1.621829
 H         0.381241        -0.275053        -0.568962
 H        -0.354830         1.601096         2.717830
 H         0.274741         2.552723         1.260808
 H        -3.200839         3.490208         0.356613
 H        -1.859105         4.294641         1.189675
 H        -1.982188         3.150553        -1.513491
 H        -0.436794         3.371659        -0.680498
 H        -2.367753         0.840656        -0.730334
 H        -1.513943        -0.547076         2.460179
 H        -2.487315        -0.728685         1.045392
