19
Iteration:  2874
 O         0.373487        -0.471669         0.522244
 C        -0.711498         0.505449         0.741554
 C        -0.374800         1.787751         1.665771
 C        -1.858949         2.072900         1.214568
 C        -2.235167         3.494981         0.662391
 C        -1.312957         3.060563        -0.552472
 C        -1.479736         1.546347        -0.213136
 O        -2.681565         1.156734         1.841248
 C        -1.985308        -0.141202         1.498143
 H         0.322894        -0.817470        -0.306521
 H        -0.064032         1.569270         2.741287
 H         0.300110         2.397402         1.165548
 H        -3.319978         3.422784         0.403827
 H        -1.944601         4.325685         1.130923
 H        -1.822847         3.219074        -1.585496
 H        -0.391906         3.548184        -0.424153
 H        -2.410876         1.226055        -0.873463
 H        -1.590581        -0.723664         2.293945
 H        -2.657542        -0.782531         0.807165
