19
Iteration:  1054
 O         0.324927        -0.330742         0.332374
 C        -0.723873         0.556907         0.676239
 C        -0.372140         1.809093         1.603938
 C        -1.933027         2.047923         1.261529
 C        -2.168993         3.438491         0.616587
 C        -1.283472         2.924153        -0.523364
 C        -1.552876         1.472308        -0.213792
 O        -2.663361         1.140317         1.966390
 C        -1.944804        -0.048110         1.550573
 H         0.381254        -1.085223         1.061342
 H        -0.073149         1.731746         2.647054
 H         0.296624         2.476546         1.036670
 H        -3.185171         3.377833         0.256921
 H        -1.827533         4.378403         1.104000
 H        -1.769640         3.301620        -1.512005
 H        -0.231947         3.267742        -0.597616
 H        -2.405635         0.965510        -0.693033
 H        -1.440584        -0.557127         2.417755
 H        -2.594211        -0.946958         1.196975
