19
Iteration:  1931
 O         0.292231        -0.410635         0.396292
 C        -0.646973         0.580786         0.787235
 C        -0.463942         1.697130         1.742247
 C        -1.929787         2.024196         1.193944
 C        -2.135510         3.412810         0.624811
 C        -1.282948         3.046305        -0.618685
 C        -1.515278         1.475995        -0.199043
 O        -2.698736         1.151775         1.878916
 C        -1.917970        -0.071476         1.540212
 H         0.733327        -0.071817        -0.325530
 H        -0.292821         1.455515         2.881601
 H         0.240472         2.431171         1.468428
 H        -3.112211         3.798085         0.299682
 H        -1.767074         4.298521         1.350933
 H        -1.876556         3.221346        -1.611236
 H        -0.296771         3.462724        -0.600948
 H        -2.313405         1.026282        -0.799166
 H        -1.534825        -0.598817         2.494655
 H        -2.583666        -0.609327         0.953719
