19
Iteration:   215
 O         0.251521        -0.386970         0.263082
 C        -0.670481         0.574431         0.786489
 C        -0.335421         1.867075         1.757176
 C        -1.860550         2.094629         1.258550
 C        -2.150938         3.446214         0.610480
 C        -1.360696         2.891384        -0.701313
 C        -1.502463         1.525120        -0.108563
 O        -2.693276         1.138055         1.860958
 C        -1.904464        -0.126970         1.595558
 H         0.498138        -0.973098         1.013013
 H        -0.290690         1.633487         2.866688
 H         0.197337         2.589588         1.327730
 H        -3.188312         3.575912         0.232730
 H        -1.833148         4.341522         1.138670
 H        -2.027527         2.979080        -1.512717
 H        -0.270920         3.266296        -0.862830
 H        -2.418493         1.009094        -0.622620
 H        -1.565586        -0.733537         2.466333
 H        -2.624514        -0.697230         0.943509
