19
Iteration:  1252charge 0 multiplicity 1
 O         0.214995        -0.375799         0.317060
 C        -0.683893         0.573688         0.756557
 C        -0.429854         1.854367         1.599668
 C        -1.914483         2.059535         1.189534
 C        -2.135597         3.465127         0.544955
 C        -1.226634         3.001597        -0.549481
 C        -1.576068         1.465381        -0.144782
 O        -2.674482         1.072291         2.010396
 C        -1.837087        -0.148944         1.530673
 H         0.455355        -0.781308         1.202818
 H        -0.345231         1.814529         2.662300
 H         0.256441         2.600251         1.307360
 H        -3.199036         3.590586         0.157442
 H        -1.927411         4.468893         1.110194
 H        -1.714456         3.331303        -1.599212
 H        -0.231601         3.179393        -0.404383
 H        -2.395835         1.127791        -0.740261
 H        -1.531393        -0.589013         2.496616
 H        -2.387422        -0.871261         0.801029
