19
Iteration:  4434charge 0 multiplicity 1
 O         0.314671        -0.371940         0.276290
 C        -0.666465         0.562750         0.696928
 C        -0.338128         1.787812         1.634489
 C        -1.855068         2.097333         1.191715
 C        -2.209842         3.462296         0.540565
 C        -1.349627         2.884652        -0.670892
 C        -1.559165         1.399002        -0.181073
 O        -2.698901         1.163038         2.026809
 C        -1.953427        -0.060492         1.710161
 H         1.000456        -0.398279         0.999124
 H         0.024905         1.616830         2.641932
 H         0.421350         2.458259         1.206989
 H        -3.356192         3.592732         0.370006
 H        -1.899949         4.275984         1.185324
 H        -1.735413         3.224645        -1.717767
 H        -0.385975         3.302937        -0.701753
 H        -2.459162         1.022608        -0.572729
 H        -1.642432        -0.360668         2.701038
 H        -2.656217        -0.728388         1.330704
