19
Iteration:  1477charge 0 multiplicity 1
 O         0.236395        -0.355557         0.291403
 C        -0.664025         0.602531         0.667731
 C        -0.297484         1.740199         1.634206
 C        -1.872884         2.057106         1.237046
 C        -2.203371         3.403283         0.577701
 C        -1.271215         2.928236        -0.559137
 C        -1.564611         1.503763        -0.141250
 O        -2.741251         1.126767         1.896478
 C        -1.933504        -0.041240         1.660489
 H         0.922735        -0.371232         0.944557
 H        -0.079409         1.313138         2.688517
 H         0.396810         2.419359         1.296148
 H        -3.326311         3.521869         0.425729
 H        -1.834612         4.228650         1.151997
 H        -1.565632         3.259198        -1.598874
 H        -0.193889         3.294586        -0.397164
 H        -2.465175         1.021786        -0.694285
 H        -1.524481        -0.482105         2.662588
 H        -2.589007        -0.604077         0.946816
