19
Iteration:  2948charge 0 multiplicity 1
 O         0.370196        -0.171620         0.360190
 C        -0.755506         0.485179         0.725317
 C        -0.422902         1.676178         1.648354
 C        -1.956637         2.067103         1.202636
 C        -2.121588         3.494148         0.626212
 C        -1.181826         2.954101        -0.550100
 C        -1.513094         1.477968        -0.177380
 O        -2.782724         1.119440         1.921732
 C        -1.924984        -0.156996         1.590003
 H         0.183067        -1.112773         0.105014
 H        -0.224695         1.604553         2.707197
 H         0.260595         2.325230         1.233581
 H        -3.124538         3.711972         0.191066
 H        -1.736907         4.446071         1.213133
 H        -1.737283         3.203518        -1.504231
 H        -0.198652         3.129357        -0.544762
 H        -2.127207         1.111179        -0.949879
 H        -1.619835        -0.497931         2.623319
 H        -2.571574        -0.785497         0.998786
