19
Iteration:  2687charge 0 multiplicity 1
 O         0.404700        -0.354868         0.368910
 C        -0.722523         0.501935         0.721622
 C        -0.490572         1.732008         1.736118
 C        -1.867769         2.063815         1.192378
 C        -2.129217         3.469158         0.657122
 C        -1.264661         3.062652        -0.600305
 C        -1.504057         1.489985        -0.149987
 O        -2.735800         1.141578         1.834738
 C        -1.965510        -0.103928         1.613144
 H         0.237335        -0.941867        -0.301764
 H        -0.392353         1.622671         2.761808
 H         0.222435         2.553651         1.353632
 H        -3.208161         3.377809         0.406238
 H        -1.864314         4.240725         1.292403
 H        -1.793776         3.152809        -1.488575
 H        -0.204885         3.295217        -0.591517
 H        -2.270377         1.156606        -0.892829
 H        -1.582839        -0.490509         2.438472
 H        -2.525064        -0.871123         1.086054
