19
Iteration:  4213charge 0 multiplicity 1
 O         0.368392        -0.365318         0.382867
 C        -0.722924         0.558776         0.722948
 C        -0.429015         1.794807         1.628584
 C        -1.941123         2.116066         1.235480
 C        -2.203014         3.518898         0.512523
 C        -1.273731         2.917053        -0.651891
 C        -1.637107         1.451225        -0.162620
 O        -2.652750         1.164523         2.027432
 C        -1.796840        -0.106782         1.579233
 H        -0.132337        -1.131181         0.472862
 H        -0.481144         1.517612         2.712378
 H         0.397781         2.387552         1.203176
 H        -3.369125         3.420593         0.334297
 H        -1.914602         4.407533         1.040387
 H        -1.678687         3.267066        -1.576725
 H        -0.160503         3.205668        -0.601000
 H        -2.335681         0.886667        -0.706351
 H        -1.282804        -0.656999         2.425035
 H        -2.458497        -0.817002         1.123975
