19
Iteration:   668charge 0 multiplicity 1
 O         0.278853        -0.365710         0.297407
 C        -0.695921         0.615698         0.650163
 C        -0.507906         1.795434         1.625677
 C        -1.913833         2.078034         1.224052
 C        -2.123972         3.447445         0.576247
 C        -1.247062         2.941389        -0.576117
 C        -1.574833         1.443495        -0.225713
 O        -2.656948         1.083963         2.065591
 C        -1.865646        -0.028896         1.595677
 H         0.737352        -0.767402         1.157515
 H        -0.472851         1.393127         2.638574
 H         0.267640         2.572042         1.448217
 H        -3.121900         3.387263         0.076649
 H        -2.038679         4.356589         1.159609
 H        -1.484877         3.310769        -1.563909
 H        -0.163636         3.358813        -0.391444
 H        -2.413116         0.903528        -0.922443
 H        -1.545378        -0.581225         2.458814
 H        -2.580966        -0.668135         1.048998
