19
Iteration:  2060
 O         0.286243        -0.411328         0.477085
 C        -0.728250         0.559143         0.739966
 C        -0.505209         1.809104         1.622839
 C        -1.952496         2.063630         1.099827
 C        -2.152650         3.490512         0.661267
 C        -1.185638         3.028753        -0.523213
 C        -1.569993         1.444817        -0.241436
 O        -2.673165         1.085142         1.996301
 C        -1.855793        -0.090416         1.504661
 H         0.576743        -0.188602        -0.522764
 H        -0.530958         1.624696         2.720826
 H         0.335882         2.314938         1.266289
 H        -3.172066         3.595138         0.383637
 H        -1.741497         4.210701         1.286590
 H        -1.336826         3.480165        -1.579565
 H        -0.165207         3.290747        -0.371563
 H        -2.417189         1.076115        -0.904653
 H        -1.521588        -0.798077         2.367701
 H        -2.455067        -0.789263         0.784255
