19
Iteration:  3563charge 0 multiplicity 1
 O         0.251948        -0.409547         0.325138
 C        -0.687072         0.539921         0.725092
 C        -0.381959         1.784659         1.638083
 C        -1.894364         2.074628         1.179607
 C        -2.284031         3.415780         0.625887
 C        -1.284567         2.971702        -0.583493
 C        -1.453812         1.501784        -0.118393
 O        -2.644968         1.154878         1.884963
 C        -1.940635        -0.049073         1.593267
 H         0.849949        -0.576193         1.043490
 H         0.013523         1.555100         2.664300
 H         0.458911         2.358467         1.132442
 H        -3.308513         3.418573         0.226602
 H        -2.133813         4.392632         1.303250
 H        -1.835711         3.229573        -1.509522
 H        -0.156601         3.328485        -0.614249
 H        -2.245776         1.094340        -0.693131
 H        -1.711307        -0.516387         2.658363
 H        -2.542716        -0.815096         1.061218
