19
Iteration:  2453charge 0 multiplicity 1
 O         0.381744        -0.335659         0.466444
 C        -0.678857         0.510064         0.745539
 C        -0.421391         1.729121         1.545446
 C        -1.908887         2.055569         1.155830
 C        -2.192098         3.500998         0.743005
 C        -1.237788         3.067264        -0.550798
 C        -1.484864         1.491141        -0.195802
 O        -2.744527         1.094808         1.909927
 C        -2.000552        -0.080819         1.488281
 H         0.087740        -1.271423         0.495829
 H        -0.172716         1.599308         2.567825
 H         0.486149         2.276210         1.070814
 H        -3.196844         3.669728         0.314286
 H        -1.823835         4.298605         1.439668
 H        -1.794840         3.200933        -1.498927
 H        -0.207385         3.409104        -0.329166
 H        -2.199927         1.102982        -1.022835
 H        -1.806823        -0.634324         2.415361
 H        -2.487419        -0.805390         0.712462
