19
Iteration:  3382charge 0 multiplicity 1
 O         0.445454        -0.310709         0.370806
 C        -0.748436         0.518092         0.767401
 C        -0.440203         1.725903         1.746016
 C        -1.900351         2.023140         1.202838
 C        -2.074279         3.514121         0.612372
 C        -1.337514         2.956229        -0.607931
 C        -1.567643         1.493210        -0.185151
 O        -2.721834         1.151791         1.863272
 C        -1.935218        -0.067410         1.573827
 H         0.090182        -1.158678         0.258730
 H        -0.357205         1.419908         2.792789
 H         0.417222         2.338560         1.250643
 H        -3.239641         3.714065         0.329744
 H        -1.877805         4.449280         1.233956
 H        -1.810334         3.079368        -1.604984
 H        -0.301866         3.254436        -0.659474
 H        -2.366059         1.062223        -0.902306
 H        -1.567189        -0.423106         2.535267
 H        -2.530888        -0.879460         1.070093
