19
Iteration:  2732charge 0 multiplicity 1
 O         0.307090        -0.411883         0.537021
 C        -0.633476         0.586685         0.699787
 C        -0.435605         1.805539         1.643342
 C        -1.885792         2.057843         1.262394
 C        -2.152701         3.405817         0.727040
 C        -1.318706         3.006316        -0.578902
 C        -1.487737         1.521117        -0.238310
 O        -2.679386         1.107348         1.882743
 C        -1.917957        -0.068162         1.393963
 H        -0.185962        -1.115362         0.250607
 H        -0.288761         1.559355         2.680860
 H         0.316310         2.582046         1.332695
 H        -3.140785         3.546225         0.186799
 H        -1.785095         4.209477         1.254370
 H        -1.967193         3.290522        -1.413391
 H        -0.338398         3.430365        -0.600500
 H        -2.342346         1.129187        -0.852382
 H        -1.723095        -0.668691         2.155361
 H        -2.611340        -0.604807         0.746457
