19
Iteration:  4225charge 0 multiplicity 1
 O         0.348167        -0.352759         0.405740
 C        -0.703977         0.546081         0.722896
 C        -0.429166         1.744010         1.609049
 C        -1.862801         2.089954         1.239992
 C        -2.180845         3.451545         0.528928
 C        -1.351155         2.973661        -0.626743
 C        -1.566722         1.467121        -0.148481
 O        -2.651147         1.102807         2.002033
 C        -1.896090        -0.007340         1.616838
 H         0.252974        -1.348757         0.112641
 H         0.009844         1.662925         2.635568
 H         0.226123         2.512602         1.189775
 H        -3.232645         3.482005         0.015843
 H        -2.077247         4.453613         0.886986
 H        -1.701250         3.014826        -1.649107
 H        -0.279901         3.286090        -0.635523
 H        -2.414693         1.110830        -0.646605
 H        -1.536049        -0.392126         2.608682
 H        -2.522046        -0.692814         1.017746
