19
Iteration:  2985charge 0 multiplicity 1
 O         0.353815        -0.400681         0.494438
 C        -0.645259         0.575018         0.765730
 C        -0.440559         1.775417         1.705046
 C        -1.917428         2.063572         1.214126
 C        -2.139558         3.485916         0.661337
 C        -1.348163         2.991102        -0.611313
 C        -1.533539         1.511181        -0.170579
 O        -2.717047         1.142362         1.891029
 C        -1.898117        -0.091147         1.453496
 H         0.191580        -0.787206        -0.448676
 H        -0.392556         1.369545         2.739472
 H         0.499532         2.285672         1.259451
 H        -3.221216         3.592600         0.361360
 H        -1.770301         4.330550         1.125175
 H        -1.835453         3.409015        -1.496445
 H        -0.246217         3.297038        -0.810703
 H        -2.273715         0.817749        -0.773004
 H        -1.613478        -0.780813         2.223494
 H        -2.468538        -0.860622         0.811942
