19
Iteration:  3669charge 0 multiplicity 1
 O         0.255548        -0.401291         0.390320
 C        -0.676196         0.547726         0.781460
 C        -0.475138         1.744395         1.678242
 C        -1.944558         2.069530         1.240062
 C        -2.150821         3.529748         0.558772
 C        -1.356292         2.970668        -0.622137
 C        -1.479893         1.390992        -0.200904
 O        -2.638052         1.143823         1.955896
 C        -1.837443        -0.062480         1.597691
 H         0.444199        -0.127373        -0.443548
 H        -0.189868         1.758886         2.736646
 H         0.049257         2.560420         1.190556
 H        -3.185090         3.656728         0.337432
 H        -1.708885         4.389321         1.116496
 H        -1.709482         3.072961        -1.622214
 H        -0.303307         3.354008        -0.698197
 H        -2.232123         0.763742        -0.736150
 H        -1.451980        -0.500164         2.525997
 H        -2.564385        -0.832844         1.025270
