19
Iteration:    18
 O         0.286617        -0.367723         0.168532
 C        -0.692038         0.525951         0.881633
 C        -0.349564         1.860633         1.709402
 C        -1.774660         2.087931         1.276623
 C        -2.183547         3.381148         0.550243
 C        -1.260058         2.935091        -0.643858
 C        -1.482691         1.489222        -0.050928
 O        -2.793864         1.146356         1.853515
 C        -1.986129        -0.065939         1.649085
 H         0.673363        -1.015872         0.842039
 H         0.098835         2.009150         2.769367
 H         0.387710         2.467965         1.156551
 H        -3.197415         3.229402         0.120074
 H        -2.150066         4.370631         1.045102
 H        -1.825540         3.003025        -1.600044
 H        -0.318431         3.441886        -1.004110
 H        -2.474128         1.128957        -0.440325
 H        -1.800313        -0.575884         2.633511
 H        -2.549378        -0.816157         1.016030
