19
Iteration:  3755charge 0 multiplicity 1
 O         0.278576        -0.440838         0.341004
 C        -0.749523         0.566194         0.751981
 C        -0.394528         1.824898         1.601590
 C        -1.912406         2.078425         1.223773
 C        -2.169855         3.406059         0.580189
 C        -1.308049         2.939342        -0.586781
 C        -1.563305         1.471950        -0.199977
 O        -2.641572         1.117489         1.923865
 C        -1.873061        -0.030065         1.645909
 H         1.186878        -0.118456         0.665069
 H        -0.502087         1.790389         2.662911
 H         0.291134         2.575103         1.219601
 H        -3.184590         3.689531         0.401737
 H        -1.810636         4.208596         1.159736
 H        -1.808865         3.094015        -1.485204
 H        -0.280145         3.337895        -0.594839
 H        -2.474200         0.966256        -0.651425
 H        -1.434703        -0.516114         2.463216
 H        -2.543695        -0.674931         1.079353
