19
Iteration:  1088charge 0 multiplicity 1
 O         0.208268        -0.391375         0.218780
 C        -0.680811         0.556506         0.808562
 C        -0.440992         1.780772         1.779468
 C        -1.964217         2.067497         1.179780
 C        -2.211527         3.416610         0.534814
 C        -1.262421         2.994102        -0.601065
 C        -1.490934         1.506576        -0.184489
 O        -2.593415         1.147682         2.013694
 C        -1.867751        -0.067661         1.538612
 H         0.769992        -0.956382         0.890067
 H        -0.256129         1.636222         2.848247
 H         0.290069         2.396777         1.385751
 H        -3.207449         3.529550         0.260582
 H        -1.981477         4.322464         1.081547
 H        -1.772689         3.139831        -1.661435
 H        -0.323376         3.357980        -0.544507
 H        -2.218299         0.842205        -0.700644
 H        -1.469788        -0.493056         2.453154
 H        -2.660667        -0.659079         0.956912
