19
Iteration:  2456
 O         0.375610        -0.336327         0.466662
 C        -0.684484         0.509161         0.732813
 C        -0.409146         1.728661         1.554387
 C        -1.920806         2.037785         1.144048
 C        -2.198791         3.490932         0.723689
 C        -1.223223         3.074581        -0.547772
 C        -1.505214         1.495069        -0.189946
 O        -2.745890         1.091949         1.921883
 C        -1.974557        -0.066258         1.483741
 H         0.076619        -1.205967         0.440158
 H        -0.175693         1.606299         2.673156
 H         0.362647         2.251651         1.069485
 H        -3.154858         3.666836         0.325078
 H        -1.733985         4.305571         1.389456
 H        -1.728066         3.158598        -1.400932
 H        -0.242450         3.417663        -0.264559
 H        -2.181036         1.084765        -0.982651
 H        -1.823483        -0.536955         2.409729
 H        -2.494472        -0.806140         0.677055
