19
Iteration:  4217charge 0 multiplicity 1
 O         0.377097        -0.363224         0.388462
 C        -0.733345         0.565888         0.712481
 C        -0.426191         1.780702         1.626201
 C        -1.929341         2.099718         1.252222
 C        -2.208320         3.513215         0.503294
 C        -1.278226         2.944772        -0.637637
 C        -1.611111         1.449817        -0.142968
 O        -2.652903         1.152074         2.021691
 C        -1.809882        -0.070117         1.583959
 H        -0.092664        -1.316248         0.400207
 H        -0.419666         1.530618         2.659056
 H         0.303959         2.394077         1.123429
 H        -3.187141         3.379383         0.302659
 H        -1.951301         4.482443         0.970227
 H        -1.731798         3.232165        -1.627454
 H        -0.266819         3.178298        -0.637749
 H        -2.398114         0.867648        -0.702480
 H        -1.388043        -0.614029         2.429460
 H        -2.507175        -0.887058         1.116260
