19
Iteration:  1348charge 0 multiplicity 1
 O         0.233984        -0.415793         0.286001
 C        -0.751223         0.613908         0.695985
 C        -0.432611         1.848515         1.656763
 C        -1.898312         2.064031         1.224227
 C        -2.220746         3.483175         0.622966
 C        -1.177952         2.941839        -0.587235
 C        -1.584926         1.461377        -0.210189
 O        -2.639090         1.086442         1.980637
 C        -1.870466        -0.100365         1.571738
 H         0.933969        -0.555892         1.064003
 H        -0.388187         1.819029         2.874658
 H         0.265957         2.549800         1.298025
 H        -3.282782         3.587319         0.147164
 H        -1.859541         4.432452         1.164400
 H        -1.319878         3.290961        -1.687199
 H        -0.171124         3.127999        -0.306047
 H        -2.413157         0.964179        -0.717220
 H        -1.510197        -0.623907         2.494424
 H        -2.558525        -0.807828         1.065479
