19
Iteration:  2383
 O         0.308186        -0.334568         0.306969
 C        -0.718220         0.537204         0.812458
 C        -0.492961         1.806254         1.671693
 C        -1.888149         2.091298         1.216596
 C        -2.136720         3.409124         0.612415
 C        -1.168141         3.016972        -0.561548
 C        -1.477808         1.503780        -0.104800
 O        -2.726453         1.076155         1.879240
 C        -1.925001        -0.100681         1.523339
 H        -0.116006        -0.872523        -0.302014
 H        -0.458523         1.693882         2.804441
 H         0.284372         2.431407         1.399253
 H        -3.213022         3.455973         0.312680
 H        -1.894223         4.286119         1.209498
 H        -1.631996         3.248081        -1.600074
 H        -0.179456         3.324975        -0.312498
 H        -2.295369         1.079471        -0.603720
 H        -1.606184        -0.717612         2.465832
 H        -2.524146        -0.693398         0.966600
