19
Iteration:   639
 O         0.262019        -0.308877         0.293612
 C        -0.676084         0.543735         0.818979
 C        -0.426474         1.766768         1.634563
 C        -1.900506         2.087208         1.173653
 C        -2.132169         3.496200         0.639942
 C        -1.332308         2.935338        -0.663846
 C        -1.521952         1.408616        -0.090186
 O        -2.675555         1.091548         1.909493
 C        -1.915292        -0.014776         1.571383
 H         0.818301        -0.810781         0.858841
 H        -0.111133         1.807246         2.787775
 H         0.296246         2.336153         1.145918
 H        -3.188199         3.601646         0.289437
 H        -1.801273         4.297469         1.288385
 H        -1.785804         3.038708        -1.629891
 H        -0.320079         3.368322        -0.414849
 H        -2.240486         0.953252        -0.734336
 H        -1.735702        -0.682583         2.459473
 H        -2.476310        -0.838268         1.041843
