19
Iteration:   919
 O         0.190207        -0.372167         0.216472
 C        -0.657305         0.596231         0.782332
 C        -0.404315         1.868782         1.689555
 C        -1.835884         2.094607         1.236204
 C        -2.196055         3.430526         0.662230
 C        -1.329339         2.853107        -0.592939
 C        -1.504341         1.422606        -0.106696
 O        -2.730405         1.198269         1.880933
 C        -1.810597        -0.077423         1.525807
 H         0.783497        -0.837528         0.953764
 H        -0.381981         1.681078         2.812492
 H         0.314972         2.564823         1.401760
 H        -3.336790         3.571953         0.502913
 H        -1.902008         4.223511         1.348420
 H        -1.788000         2.945965        -1.536712
 H        -0.207456         3.079651        -0.598103
 H        -2.278022         1.085572        -0.647595
 H        -1.465719        -0.726960         2.433386
 H        -2.261761        -0.793376         0.765428
