19
Iteration:  4790
 O         0.271648        -0.396876         0.315975
 C        -0.708282         0.551950         0.775472
 C        -0.297568         1.801579         1.570405
 C        -1.882451         2.164179         1.231600
 C        -2.287325         3.420131         0.532779
 C        -1.352140         2.901835        -0.609949
 C        -1.523955         1.412206        -0.188737
 O        -2.597070         1.188408         2.063798
 C        -1.921769        -0.016779         1.608342
 H         0.625918        -0.962460         1.152278
 H        -0.087154         1.572962         2.608289
 H         0.272047         2.570677         1.020734
 H        -3.210190         3.273151         0.002578
 H        -2.166700         4.361553         0.958907
 H        -1.784787         3.199018        -1.650790
 H        -0.293314         3.219555        -0.446963
 H        -2.346812         0.790180        -0.682980
 H        -1.580598        -0.653858         2.429570
 H        -2.552811        -0.583415         0.857764
