19
Iteration:  1941charge 0 multiplicity 1
 O         0.260533        -0.412085         0.421990
 C        -0.728578         0.491927         0.753732
 C        -0.534533         1.791252         1.680917
 C        -1.906333         2.103136         1.142994
 C        -2.143048         3.533585         0.635930
 C        -1.259103         3.030946        -0.570608
 C        -1.461108         1.478733        -0.188569
 O        -2.668254         1.091261         1.931427
 C        -1.871834        -0.152870         1.528944
 H         0.866206        -0.047065        -0.163434
 H        -0.325501         1.506538         2.780505
 H         0.202534         2.431640         1.294528
 H        -3.194096         3.571531         0.385288
 H        -1.658076         4.381271         1.264647
 H        -1.800713         3.208817        -1.599229
 H        -0.311057         3.478376        -0.686469
 H        -2.290237         1.026858        -0.772445
 H        -1.706608        -0.733597         2.518421
 H        -2.422143        -0.749366         0.890107
