19
Iteration:  4074
 O         0.238996        -0.342383         0.325775
 C        -0.686332         0.548625         0.736702
 C        -0.366371         1.686808         1.669700
 C        -1.927065         2.093137         1.219438
 C        -2.187213         3.383372         0.596080
 C        -1.342710         2.936417        -0.705795
 C        -1.517682         1.496735        -0.177956
 O        -2.658366         1.154180         1.943243
 C        -1.870252        -0.011312         1.664944
 H         1.169958         0.040409         0.675831
 H        -0.447174         1.342789         2.732006
 H         0.370811         2.414340         1.359578
 H        -3.232716         3.338267         0.284702
 H        -1.921801         4.349123         1.173648
 H        -1.688921         3.129377        -1.704482
 H        -0.214709         3.028193        -0.734985
 H        -2.541631         1.130232        -0.660723
 H        -1.482659        -0.238732         2.680285
 H        -2.548325        -0.861001         1.210169
