19
Iteration:  4636
 O         0.167066        -0.416458         0.291010
 C        -0.641347         0.568715         0.761941
 C        -0.369891         1.905675         1.629171
 C        -1.899092         2.078604         1.149449
 C        -2.223115         3.494249         0.559699
 C        -1.365006         2.917655        -0.676282
 C        -1.506749         1.374134        -0.175402
 O        -2.594879         1.139845         1.962988
 C        -1.834960        -0.058102         1.712837
 H         0.614943        -0.898544         1.130915
 H        -0.450230         1.796384         2.742267
 H         0.428969         2.612756         1.421047
 H        -3.309868         3.598885         0.351676
 H        -2.024746         4.378668         1.369370
 H        -1.732120         3.162837        -1.691680
 H        -0.225886         3.171299        -0.497675
 H        -2.438104         0.927154        -0.700850
 H        -1.552259        -0.589665         2.586301
 H        -2.398603        -0.836827         1.039961
