19
Iteration:  4736charge 0 multiplicity 1
 O         0.210492        -0.353157         0.246674
 C        -0.722053         0.607000         0.801128
 C        -0.412570         1.856529         1.664839
 C        -1.922252         2.110276         1.154167
 C        -2.107223         3.464457         0.561591
 C        -1.346104         2.850517        -0.666971
 C        -1.581938         1.415314        -0.092094
 O        -2.715338         1.115232         1.961640
 C        -1.765467        -0.065644         1.675161
 H         0.740713        -0.816916         1.040016
 H        -0.041237         1.742562         2.674774
 H         0.277515         2.606415         1.202445
 H        -3.133865         3.799989         0.335824
 H        -1.528548         4.308088         0.967041
 H        -1.740193         2.875869        -1.739668
 H        -0.349444         3.220437        -0.724433
 H        -2.319503         0.783405        -0.611822
 H        -1.319690        -0.413288         2.607676
 H        -2.242965        -0.891522         1.099196
