19
Iteration:  2549charge 0 multiplicity 1
 O         0.250244        -0.389842         0.441292
 C        -0.724141         0.579912         0.735460
 C        -0.477763         1.705190         1.661494
 C        -1.960371         2.065593         1.201464
 C        -2.154525         3.471347         0.650253
 C        -1.212123         3.019709        -0.575820
 C        -1.538734         1.499567        -0.257248
 O        -2.642244         1.115140         1.941154
 C        -1.887670        -0.131096         1.473890
 H         1.242568        -0.037123         0.337671
 H        -0.457898         1.529154         2.701916
 H         0.305358         2.512753         1.394400
 H        -3.246132         3.540980         0.356741
 H        -1.744488         4.344504         1.087021
 H        -1.775702         3.287078        -1.519579
 H        -0.227301         3.260298        -0.355856
 H        -2.323129         1.092916        -0.847143
 H        -1.564166        -0.616109         2.475696
 H        -2.493156        -0.779277         0.938561
