19
Iteration:   597charge 0 multiplicity 1
 O         0.275192        -0.353809         0.294043
 C        -0.651973         0.597003         0.778237
 C        -0.437895         1.709533         1.690843
 C        -1.839318         2.064107         1.230971
 C        -2.203627         3.461265         0.586063
 C        -1.361084         2.968082        -0.674371
 C        -1.513190         1.440641        -0.170753
 O        -2.685942         1.136416         1.923925
 C        -1.869859         0.013029         1.588130
 H         0.712793        -0.850570         1.100607
 H        -0.423407         1.407655         2.797401
 H         0.402043         2.312159         1.502530
 H        -3.294229         3.568425         0.452561
 H        -1.730806         4.321600         1.087443
 H        -1.864233         3.256436        -1.617099
 H        -0.334200         3.266625        -0.811821
 H        -2.310799         0.881203        -0.520178
 H        -1.641815        -0.691425         2.494084
 H        -2.435745        -0.764227         1.030898
