19
Iteration:  1692
 O         0.261027        -0.440861         0.393528
 C        -0.684452         0.555585         0.774421
 C        -0.434896         1.806440         1.713512
 C        -1.921001         2.118800         1.250983
 C        -2.128386         3.509859         0.639145
 C        -1.296078         3.047750        -0.634976
 C        -1.446567         1.520611        -0.068137
 O        -2.757972         1.044149         1.866067
 C        -1.874761        -0.174547         1.476115
 H         0.179302        -0.533246        -0.503404
 H        -0.068855         1.702121         2.850841
 H         0.261389         2.499448         1.221363
 H        -3.125937         3.789954         0.602286
 H        -1.737403         4.409425         1.213691
 H        -1.647585         3.079736        -1.707751
 H        -0.310390         3.462422        -0.539884
 H        -2.240439         1.044990        -0.652364
 H        -1.529564        -0.802553         2.326670
 H        -2.414746        -0.657110         0.591175
