19
Iteration:  3838
 O         0.300655        -0.422075         0.428846
 C        -0.691764         0.630579         0.720458
 C        -0.373957         1.793077         1.607209
 C        -1.880305         2.062334         1.224283
 C        -2.236888         3.400229         0.557265
 C        -1.264567         2.978166        -0.610795
 C        -1.540108         1.476044        -0.149570
 O        -2.672897         1.147234         1.986590
 C        -1.929195        -0.062361         1.585964
 H         0.336899        -0.724513        -0.428482
 H        -0.076952         1.558231         2.667559
 H         0.197370         2.588099         1.179921
 H        -3.322875         3.231039         0.257743
 H        -2.035878         4.276733         1.158266
 H        -1.596441         3.370117        -1.670297
 H        -0.251867         3.316525        -0.563721
 H        -2.392268         1.129149        -0.662882
 H        -1.331570        -0.531314         2.481813
 H        -2.583359        -0.885144         1.085795
