19
Iteration:  3657charge 0 multiplicity 1
 O         0.351216        -0.375175         0.393946
 C        -0.712496         0.525976         0.774029
 C        -0.460383         1.820203         1.619155
 C        -1.861474         2.111656         1.150428
 C        -2.154791         3.455860         0.647429
 C        -1.315307         2.898607        -0.639431
 C        -1.548094         1.450598        -0.195926
 O        -2.713000         1.154793         1.957489
 C        -1.872878        -0.081523         1.665151
 H         0.380080        -0.374020        -0.651603
 H        -0.484987         1.606517         2.697651
 H         0.423010         2.339383         1.300097
 H        -3.186236         3.683038         0.344214
 H        -1.737383         4.289607         1.166460
 H        -1.839480         3.258288        -1.509778
 H        -0.303654         3.272968        -0.609091
 H        -2.332691         0.994429        -0.881199
 H        -1.428066        -0.580031         2.525598
 H        -2.610568        -0.873523         1.114267
