19
Iteration:  4237charge 0 multiplicity 1
 O         0.353501        -0.312867         0.424018
 C        -0.683494         0.493275         0.794689
 C        -0.298622         1.781610         1.600711
 C        -1.848651         2.093887         1.210589
 C        -2.255814         3.393465         0.575322
 C        -1.325631         2.925746        -0.685337
 C        -1.530971         1.494070        -0.179873
 O        -2.688509         1.176980         1.944143
 C        -1.953107        -0.053349         1.661698
 H        -0.154500        -0.927480        -0.144748
 H        -0.065278         1.600536         2.652116
 H         0.349102         2.413947         1.005381
 H        -3.369707         3.379808         0.375825
 H        -1.920159         4.213079         1.186462
 H        -1.816206         3.207225        -1.629033
 H        -0.371108         3.417957        -0.632372
 H        -2.376917         1.058646        -0.635031
 H        -1.564720        -0.683860         2.492025
 H        -2.602699        -0.776794         1.073303
