19
Iteration:  2479charge 0 multiplicity 1
 O         0.313129        -0.349003         0.419979
 C        -0.684274         0.597784         0.713411
 C        -0.505965         1.781382         1.699739
 C        -1.893895         2.078916         1.222561
 C        -2.163495         3.483091         0.653811
 C        -1.204441         2.986462        -0.589938
 C        -1.522517         1.503612        -0.228395
 O        -2.698037         1.084066         1.897580
 C        -1.902851        -0.104295         1.530819
 H        -0.093476        -1.004815        -0.268934
 H        -0.442607         1.340263         2.760755
 H         0.316822         2.384149         1.551277
 H        -3.110055         3.525140         0.157710
 H        -1.938997         4.320921         1.365531
 H        -1.559574         3.302342        -1.479927
 H        -0.216730         3.058799        -0.245309
 H        -2.317318         1.128704        -0.856409
 H        -1.498659        -0.590719         2.419144
 H        -2.464126        -0.875581         0.854812
