19
Iteration:  1980charge 0 multiplicity 1
 O         0.237636        -0.429349         0.406690
 C        -0.667983         0.589151         0.716385
 C        -0.434255         1.701493         1.626362
 C        -1.891900         2.049956         1.237286
 C        -2.168586         3.405219         0.653112
 C        -1.287852         2.993045        -0.578929
 C        -1.524250         1.486386        -0.170488
 O        -2.735737         1.183434         1.905715
 C        -1.841083        -0.060032         1.509930
 H         1.161894         0.086319         0.463826
 H        -0.398010         1.460816         2.651729
 H         0.331675         2.559049         1.517251
 H        -3.278582         3.468104         0.427674
 H        -1.988093         4.322083         1.180620
 H        -1.702474         3.221868        -1.501422
 H        -0.191442         3.223633        -0.429508
 H        -2.268842         1.071639        -0.864452
 H        -1.576937        -0.530034         2.386757
 H        -2.350362        -0.668980         0.607509
