19
Iteration:  1775
 O         0.329668        -0.327888         0.412142
 C        -0.748601         0.584461         0.753286
 C        -0.473472         1.753880         1.720410
 C        -1.910596         2.086442         1.187923
 C        -2.121124         3.480159         0.636521
 C        -1.233235         3.003054        -0.547569
 C        -1.519115         1.478393        -0.204984
 O        -2.688944         1.054371         1.958310
 C        -1.931354        -0.094586         1.438328
 H        -0.045118        -1.104856        -0.128831
 H        -0.476234         1.730556         2.724268
 H         0.301692         2.441900         1.224396
 H        -3.173436         3.642072         0.321699
 H        -1.587149         4.195549         1.213490
 H        -1.592560         3.299936        -1.483942
 H        -0.142034         3.222701        -0.497323
 H        -2.343954         1.080959        -0.821384
 H        -1.440348        -0.658787         2.211852
 H        -2.516795        -0.705798         0.870460
