19
Iteration:   186charge 0 multiplicity 1
 O         0.314719        -0.319674         0.289059
 C        -0.727945         0.514713         0.741380
 C        -0.429996         1.664559         1.618619
 C        -1.889729         2.075450         1.155348
 C        -2.224849         3.449547         0.613926
 C        -1.269234         2.985531        -0.635971
 C        -1.506382         1.413723        -0.232043
 O        -2.676250         1.191509         2.019279
 C        -1.904190        -0.026721         1.684841
 H         0.718954        -0.839023         1.123694
 H        -0.300023         1.462004         2.724421
 H         0.279529         2.515378         1.218985
 H        -3.263366         3.509017         0.252091
 H        -2.036531         4.391310         1.175796
 H        -1.629672         3.246306        -1.663768
 H        -0.276790         3.278605        -0.516750
 H        -2.212435         0.986115        -0.813519
 H        -1.454015        -0.653965         2.520417
 H        -2.629113        -0.496775         1.049870
