19
Iteration:   674charge 0 multiplicity 1
 O         0.292245        -0.365894         0.279136
 C        -0.706160         0.551543         0.697720
 C        -0.474505         1.748938         1.656354
 C        -1.930856         2.044062         1.185666
 C        -2.159161         3.448394         0.579894
 C        -1.242228         2.949893        -0.578776
 C        -1.585033         1.479124        -0.218122
 O        -2.649061         1.100407         2.061872
 C        -1.874112         0.011764         1.577583
 H         0.654678        -0.673056         1.070192
 H        -0.454975         1.374804         2.693479
 H         0.183521         2.607319         1.410071
 H        -3.183416         3.371504         0.220579
 H        -2.084929         4.450701         1.087770
 H        -1.364432         3.335530        -1.632985
 H        -0.249019         3.275417        -0.462714
 H        -2.184778         0.895605        -0.789930
 H        -1.381208        -0.363235         2.533748
 H        -2.578625        -0.565687         0.967982
