19
Iteration:  3300charge 0 multiplicity 1
 O         0.211409        -0.451849         0.384460
 C        -0.718441         0.553158         0.743154
 C        -0.431985         1.760601         1.664048
 C        -1.850966         2.078592         1.254596
 C        -2.258310         3.478628         0.570625
 C        -1.261985         3.013566        -0.600036
 C        -1.459675         1.475119        -0.109987
 O        -2.665842         1.131249         1.865045
 C        -1.890205        -0.080365         1.582464
 H         1.177573        -0.168037         0.379509
 H        -0.178331         1.581333         2.719571
 H         0.275396         2.442536         1.223241
 H        -3.283764         3.317074         0.176342
 H        -2.025173         4.393165         1.085260
 H        -1.762893         3.159077        -1.667378
 H        -0.184227         3.364458        -0.692642
 H        -2.340564         1.044712        -0.575298
 H        -1.519343        -0.410337         2.593001
 H        -2.449782        -0.683395         0.871662
