19
Iteration:  1032charge 0 multiplicity 1
 O         0.310039        -0.356248         0.304526
 C        -0.691344         0.543843         0.740695
 C        -0.401911         1.739807         1.731188
 C        -1.828351         2.119763         1.176763
 C        -2.156363         3.520290         0.631947
 C        -1.388456         3.007256        -0.689318
 C        -1.581728         1.452575        -0.185679
 O        -2.704044         1.131829         1.901546
 C        -1.856258        -0.069468         1.633788
 H         0.513349        -0.998886         0.948008
 H        -0.338252         1.288812         2.704719
 H         0.512315         2.389522         1.583297
 H        -3.237969         3.457851         0.626949
 H        -1.677341         4.308812         1.250750
 H        -1.890920         2.998923        -1.708252
 H        -0.343887         3.450517        -0.754206
 H        -2.372156         0.797677        -0.576412
 H        -1.606320        -0.716310         2.518496
 H        -2.417746        -0.877315         0.989621
