19
Iteration:  1784charge 0 multiplicity 1
 O         0.325648        -0.358595         0.406065
 C        -0.697840         0.642382         0.738119
 C        -0.505348         1.739535         1.790657
 C        -1.888625         2.059617         1.173812
 C        -2.069638         3.459766         0.657708
 C        -1.307262         2.972236        -0.557227
 C        -1.545067         1.478389        -0.229594
 O        -2.660212         1.086894         1.886651
 C        -1.909098        -0.063305         1.497591
 H        -0.213452        -0.923257        -0.246502
 H        -0.532376         1.412942         2.822311
 H         0.353676         2.477957         1.428289
 H        -3.202323         3.670039         0.463545
 H        -1.740391         4.312031         1.206810
 H        -1.628619         3.265493        -1.521262
 H        -0.227917         3.366542        -0.560228
 H        -2.223383         0.805339        -0.854487
 H        -1.600834        -0.670328         2.304283
 H        -2.566770        -0.563399         0.787350
