19
Iteration:   440
 O         0.253397        -0.338817         0.270631
 C        -0.668719         0.561397         0.771379
 C        -0.367381         1.733905         1.618829
 C        -1.850896         2.077323         1.242021
 C        -2.195579         3.432951         0.588423
 C        -1.335979         2.901615        -0.596661
 C        -1.510564         1.486728        -0.094474
 O        -2.738102         1.175598         1.882696
 C        -1.876087        -0.094994         1.616332
 H         0.624850        -0.715616         1.026307
 H        -0.216388         1.586160         2.637000
 H         0.426081         2.512720         1.238119
 H        -3.248549         3.417094         0.243260
 H        -2.032945         4.420062         1.055808
 H        -1.591606         3.254695        -1.614649
 H        -0.358109         3.387920        -0.464590
 H        -2.238406         0.963123        -0.602148
 H        -1.561521        -0.362464         2.735964
 H        -2.404760        -0.771896         0.896504
