19
Iteration:  4051charge 0 multiplicity 1
 O         0.302136        -0.409013         0.332977
 C        -0.684660         0.520957         0.745403
 C        -0.421399         1.841515         1.690242
 C        -1.897954         2.096131         1.249850
 C        -2.156130         3.514884         0.613823
 C        -1.348700         2.953391        -0.704671
 C        -1.544810         1.370991        -0.126945
 O        -2.700578         1.137367         1.943458
 C        -1.891524        -0.064638         1.613024
 H         1.034177         0.077214         0.108363
 H        -0.350319         1.621155         2.766486
 H         0.314127         2.360597         1.147539
 H        -3.208313         3.728095         0.395545
 H        -1.645975         4.348895         1.138359
 H        -1.796462         2.901354        -1.635161
 H        -0.266324         3.282211        -0.810373
 H        -2.357652         0.823983        -0.727806
 H        -1.571407        -0.455343         2.626934
 H        -2.454570        -0.875662         0.963551
