19
Iteration:  2131
 O         0.200690        -0.460806         0.363856
 C        -0.689157         0.538054         0.762506
 C        -0.428199         1.796476         1.701412
 C        -1.871346         2.059196         1.244646
 C        -2.177155         3.503886         0.567921
 C        -1.296703         3.059231        -0.620278
 C        -1.439139         1.540838        -0.183790
 O        -2.726567         1.030084         1.983784
 C        -1.918907        -0.085093         1.495478
 H         1.222799        -0.175390         0.352008
 H        -0.483249         1.622471         2.769913
 H         0.373189         2.586465         1.438926
 H        -3.251966         3.613508         0.203580
 H        -1.665060         4.236763         1.255970
 H        -1.632143         3.265786        -1.602058
 H        -0.233099         3.472880        -0.649849
 H        -2.264316         1.183570        -0.741005
 H        -1.412114        -0.822132         2.293672
 H        -2.418324        -0.783608         0.866514
