19
Iteration:  1948charge 0 multiplicity 1
 O         0.249064        -0.434390         0.437864
 C        -0.757424         0.490450         0.746974
 C        -0.496334         1.842195         1.633733
 C        -1.879098         2.128090         1.169324
 C        -2.146856         3.579964         0.647554
 C        -1.261702         2.999953        -0.562453
 C        -1.472527         1.492650        -0.182462
 O        -2.665446         1.025583         1.951432
 C        -1.901330        -0.152958         1.515224
 H         0.908952         0.048416         0.002907
 H        -0.572754         1.802207         2.669419
 H         0.349167         2.428083         1.158834
 H        -3.222993         3.714935         0.436723
 H        -1.846774         4.387199         1.171565
 H        -1.629640         3.221382        -1.515905
 H        -0.212201         3.365570        -0.675527
 H        -2.171096         1.040882        -0.931011
 H        -1.564482        -0.752484         2.340121
 H        -2.412487        -1.019505         0.869351
