19
Iteration:  3887charge 0 multiplicity 1
 O         0.376656        -0.334468         0.364252
 C        -0.656246         0.568597         0.740587
 C        -0.386145         1.815355         1.641964
 C        -1.874239         2.045440         1.236940
 C        -2.195442         3.408278         0.726305
 C        -1.326371         2.900109        -0.675853
 C        -1.537305         1.454921        -0.225256
 O        -2.725459         1.175095         1.912924
 C        -1.945754        -0.024361         1.605075
 H         0.141743        -1.371362         0.336753
 H        -0.234559         1.489896         2.663351
 H         0.320939         2.577309         1.268684
 H        -3.271507         3.611414         0.368205
 H        -1.750152         4.284998         1.322781
 H        -1.841144         3.137559        -1.588552
 H        -0.234439         3.283533        -0.614996
 H        -2.292152         0.950673        -0.939688
 H        -1.653296        -0.503443         2.488503
 H        -2.558221        -0.656983         1.025606
