19
Iteration:  4884charge 0 multiplicity 1
 O         0.269864        -0.314652         0.263112
 C        -0.749440         0.540296         0.755329
 C        -0.414985         1.872830         1.626817
 C        -1.903989         2.045656         1.175099
 C        -2.166949         3.477821         0.532500
 C        -1.280476         2.838135        -0.705666
 C        -1.581461         1.455174        -0.138986
 O        -2.652601         1.156963         2.095747
 C        -1.865330        -0.058342         1.659111
 H         0.744349        -0.545179         1.001871
 H        -0.324129         1.442059         2.630208
 H         0.474501         2.409329         1.235360
 H        -3.196619         3.671828         0.132622
 H        -1.658062         4.288117         1.170041
 H        -1.821473         2.866154        -1.596885
 H        -0.173047         2.973637        -0.784211
 H        -2.329302         0.903957        -0.724234
 H        -1.488948        -0.533339         2.591996
 H        -2.571304        -0.738192         1.111759
