19
Iteration:  4677
 O         0.320492        -0.392896         0.304709
 C        -0.710723         0.569963         0.775951
 C        -0.287238         1.756364         1.650991
 C        -1.819019         2.120737         1.180944
 C        -2.267293         3.415893         0.582947
 C        -1.342368         2.909868        -0.719768
 C        -1.604083         1.485139        -0.202577
 O        -2.639070         1.182852         2.010178
 C        -1.966053        -0.022079         1.693861
 H         0.909288        -0.482377         0.996589
 H        -0.202725         1.412666         2.695500
 H         0.413221         2.419676         1.191128
 H        -3.297131         3.280007         0.366732
 H        -2.032858         4.344166         0.923864
 H        -1.789134         3.006392        -1.685336
 H        -0.226046         3.306264        -0.532153
 H        -2.352565         0.852850        -0.774544
 H        -1.773973        -0.646753         2.571578
 H        -2.603623        -0.689846         1.020290
