19
Iteration:  1825charge 0 multiplicity 1
 O         0.333088        -0.352793         0.397505
 C        -0.673436         0.456474         0.831270
 C        -0.395287         1.715997         1.664902
 C        -1.855402         2.110117         1.299705
 C        -2.155974         3.495954         0.644635
 C        -1.347921         3.039400        -0.567319
 C        -1.466551         1.504756        -0.160432
 O        -2.705293         1.108087         1.769039
 C        -2.002013        -0.119893         1.575681
 H         0.272722        -0.535686        -0.492733
 H        -0.074593         1.438639         2.767447
 H         0.215043         2.403607         1.116069
 H        -3.206183         3.445732         0.273192
 H        -1.767592         4.390753         1.118431
 H        -1.680851         3.392022        -1.586622
 H        -0.292218         3.410686        -0.575572
 H        -2.290341         1.126534        -0.805911
 H        -1.829998        -0.501688         2.601200
 H        -2.644210        -0.823183         0.827106
