19
Iteration:  3765
 O         0.200230        -0.397291         0.379631
 C        -0.663630         0.585902         0.687701
 C        -0.364482         1.842077         1.672467
 C        -1.913356         2.049108         1.163087
 C        -2.163930         3.537511         0.624804
 C        -1.347874         2.855881        -0.640024
 C        -1.590884         1.454074        -0.095929
 O        -2.655643         1.084204         1.931164
 C        -1.843122        -0.069670         1.569066
 H         1.072163        -0.068160         0.568692
 H        -0.322409         1.715277         2.743523
 H         0.371360         2.561375         1.369027
 H        -3.217969         3.721101         0.248869
 H        -1.733480         4.323210         1.149253
 H        -1.631159         3.007218        -1.646854
 H        -0.293487         3.075760        -0.703699
 H        -2.488325         1.100593        -0.662419
 H        -1.488352        -0.415479         2.481054
 H        -2.356679        -0.808619         1.066890
