19
Iteration:   987charge 0 multiplicity 1
 O         0.238403        -0.339124         0.272613
 C        -0.641424         0.618599         0.753534
 C        -0.305831         1.820674         1.661652
 C        -1.866926         2.053984         1.227888
 C        -2.177409         3.449493         0.655923
 C        -1.306221         2.905924        -0.618558
 C        -1.578399         1.416663        -0.215992
 O        -2.734385         1.119262         1.987686
 C        -1.903944        -0.060071         1.548353
 H         0.716601        -0.652245         1.006544
 H        -0.231382         1.633946         2.721879
 H         0.392383         2.697683         1.366242
 H        -3.185976         3.562337         0.179884
 H        -1.806674         4.375630         1.181665
 H        -1.808609         3.215975        -1.515159
 H        -0.151524         3.166944        -0.481840
 H        -2.331235         0.832577        -0.782637
 H        -1.756452        -0.730418         2.473815
 H        -2.557996        -0.778690         0.888582
