19
Iteration:  1393charge 0 multiplicity 1
 O         0.301584        -0.355485         0.263856
 C        -0.707542         0.490660         0.776895
 C        -0.361006         1.832045         1.680843
 C        -1.808944         2.098975         1.210157
 C        -2.188532         3.480490         0.596770
 C        -1.334932         2.976856        -0.643287
 C        -1.484618         1.503079        -0.100875
 O        -2.706733         1.137307         1.883651
 C        -2.004852        -0.153837         1.597918
 H         0.624645        -1.125487         0.896165
 H         0.039397         1.692583         2.782357
 H         0.490845         2.457859         1.261209
 H        -3.340707         3.520407         0.552395
 H        -1.867526         4.367024         1.271961
 H        -1.860658         3.167576        -1.669487
 H        -0.361412         3.305534        -0.535001
 H        -2.322489         1.055657        -0.589762
 H        -1.677779        -0.524685         2.580415
 H        -2.572971        -0.893548         1.020538
