19
Iteration:  1119charge 0 multiplicity 1
 O         0.269968        -0.353499         0.250058
 C        -0.666169         0.581116         0.825383
 C        -0.330951         1.706822         1.701254
 C        -1.847466         2.081347         1.210426
 C        -2.197614         3.425781         0.650083
 C        -1.339496         2.938582        -0.641566
 C        -1.564576         1.465873        -0.102953
 O        -2.735470         1.160825         1.836680
 C        -1.893022        -0.006030         1.585213
 H         0.891816        -0.724033         0.849193
 H        -0.076385         1.444031         2.740274
 H         0.362624         2.384071         1.210639
 H        -3.298645         3.366880         0.385105
 H        -1.904594         4.336330         1.255054
 H        -1.600072         3.183553        -1.725641
 H        -0.277549         3.240384        -0.622211
 H        -2.467190         1.095970        -0.531863
 H        -1.599808        -0.455966         2.572282
 H        -2.530156        -0.838743         1.098712
