19
Iteration:  4897
 O         0.233861        -0.384891         0.284164
 C        -0.660183         0.593464         0.723025
 C        -0.489656         1.790587         1.668629
 C        -1.965578         2.141088         1.256391
 C        -2.150061         3.416788         0.476126
 C        -1.276865         2.864625        -0.683752
 C        -1.566599         1.388380        -0.164538
 O        -2.568820         1.173891         2.125394
 C        -1.870014        -0.035688         1.602551
 H         0.875235        -0.700425         1.048211
 H        -0.134402         1.777824         2.709780
 H         0.110892         2.608429         1.175796
 H        -3.207417         3.546475         0.218583
 H        -1.946209         4.357474         0.985954
 H        -1.687767         3.063368        -1.721584
 H        -0.245173         3.377649        -0.822649
 H        -2.544979         0.983744        -0.661252
 H        -1.520220        -0.653555         2.406581
 H        -2.607847        -0.629536         0.931454
