19
Iteration:  3139
 O         0.310079        -0.429974         0.376644
 C        -0.737033         0.572833         0.747815
 C        -0.426725         1.781839         1.676795
 C        -1.907608         2.129502         1.177118
 C        -2.182500         3.484625         0.589452
 C        -1.330330         2.994657        -0.605104
 C        -1.498192         1.450476        -0.198822
 O        -2.670250         1.110846         1.913960
 C        -1.895459        -0.095510         1.555193
 H         0.802396        -0.774942         1.167916
 H        -0.148590         1.807809         2.767650
 H         0.449941         2.301380         1.177446
 H        -3.286870         3.612029         0.393904
 H        -1.860728         4.300765         1.212654
 H        -1.754319         3.254682        -1.495205
 H        -0.309115         3.431255        -0.402724
 H        -2.453656         0.972346        -0.636814
 H        -1.409121        -0.635753         2.354366
 H        -2.550850        -0.718534         0.857074
