19
Iteration:  3548charge 0 multiplicity 1
 O         0.285554        -0.402809         0.310036
 C        -0.689789         0.477072         0.835589
 C        -0.363005         1.746422         1.625487
 C        -1.829894         2.079338         1.212431
 C        -2.178433         3.424492         0.593126
 C        -1.293300         3.043923        -0.594671
 C        -1.591058         1.485060        -0.237104
 O        -2.749493         1.153290         1.908350
 C        -1.897267        -0.078282         1.639566
 H         1.209029        -0.243732         0.825219
 H        -0.397261         1.694705         2.714541
 H         0.280829         2.438366         1.195792
 H        -3.268383         3.465797         0.408577
 H        -1.994615         4.395721         1.091858
 H        -1.564972         3.256609        -1.630392
 H        -0.370700         3.443251        -0.328429
 H        -2.383401         0.925048        -0.791789
 H        -1.528064        -0.564953         2.482152
 H        -2.466097        -0.691717         1.002405
