19
Iteration:  1530charge 0 multiplicity 1
 O         0.225514        -0.447361         0.420624
 C        -0.643629         0.565234         0.771416
 C        -0.432019         1.752937         1.680211
 C        -1.900744         2.049283         1.253203
 C        -2.148044         3.465133         0.630376
 C        -1.313162         2.990912        -0.640256
 C        -1.545416         1.473079        -0.198471
 O        -2.677769         1.112219         1.960070
 C        -1.874105        -0.064118         1.471715
 H         0.813934        -0.062729        -0.227573
 H        -0.147363         1.887351         2.755714
 H         0.235231         2.401719         1.186091
 H        -3.222349         3.828645         0.495927
 H        -1.693182         4.340844         1.209429
 H        -1.831417         3.313061        -1.546626
 H        -0.256452         3.408637        -0.575352
 H        -2.351046         0.936091        -0.818888
 H        -1.529771        -0.568468         2.356767
 H        -2.515397        -0.655575         0.823954
