19
Iteration:  4129
 O         0.237951        -0.377675         0.322013
 C        -0.724495         0.553346         0.755069
 C        -0.399231         1.797939         1.696242
 C        -1.891590         2.124159         1.184962
 C        -2.227352         3.414213         0.589283
 C        -1.321155         2.928525        -0.690462
 C        -1.481426         1.440482        -0.219274
 O        -2.616597         1.169720         2.016451
 C        -1.826443        -0.054704         1.563939
 H         0.587971        -0.771137         1.177220
 H        -0.332866         1.711697         2.815539
 H         0.359228         2.607137         1.404631
 H        -3.298649         3.386773         0.476339
 H        -2.002264         4.410182         1.114618
 H        -1.960603         3.075205        -1.576539
 H        -0.295318         3.255863        -0.712449
 H        -2.477488         1.063614        -0.759402
 H        -1.502114        -0.745060         2.390394
 H        -2.570486        -0.843970         1.053211
