19
Iteration:   702
 O         0.237248        -0.321526         0.213712
 C        -0.692301         0.486102         0.839320
 C        -0.353430         1.833424         1.644728
 C        -1.808615         2.083925         1.227646
 C        -2.187539         3.455269         0.593818
 C        -1.330910         2.957219        -0.582311
 C        -1.458959         1.461133        -0.089543
 O        -2.698862         1.129144         1.851644
 C        -1.957879        -0.096035         1.625036
 H         0.742133        -0.680353         0.961651
 H        -0.180795         1.591101         2.788343
 H         0.423301         2.463846         1.312780
 H        -3.285584         3.275835         0.299806
 H        -2.098241         4.428721         1.036721
 H        -1.782743         3.044515        -1.547823
 H        -0.270341         3.592798        -0.534829
 H        -2.352063         0.802508        -0.622680
 H        -1.764751        -0.583051         2.571316
 H        -2.584345        -0.759655         0.937994
