19
Iteration:   880
 O         0.352998        -0.294789         0.316215
 C        -0.748542         0.532730         0.721733
 C        -0.473111         1.712222         1.623680
 C        -1.892570         2.079989         1.174846
 C        -2.158135         3.448744         0.627837
 C        -1.353007         2.994713        -0.662979
 C        -1.458426         1.520217        -0.213457
 O        -2.704938         1.140913         2.041442
 C        -1.878224        -0.152257         1.596679
 H         0.411723        -0.923946         1.000368
 H        -0.287813         1.460793         2.638133
 H         0.471037         2.301801         1.215125
 H        -3.198004         3.682305         0.569580
 H        -1.683799         4.338266         1.144555
 H        -1.615800         3.142575        -1.733090
 H        -0.364993         3.521778        -0.613860
 H        -2.384543         0.865865        -0.628938
 H        -1.514748        -0.562854         2.468911
 H        -2.673283        -0.729129         1.154219
