19
Iteration:  1035charge 0 multiplicity 1
 O         0.314220        -0.341960         0.313161
 C        -0.691732         0.546582         0.733924
 C        -0.410060         1.711793         1.695145
 C        -1.820623         2.119533         1.182060
 C        -2.156637         3.471841         0.645328
 C        -1.361427         3.008202        -0.695388
 C        -1.590503         1.478993        -0.170295
 O        -2.720285         1.135751         1.917762
 C        -1.837932        -0.050982         1.618121
 H         0.500386        -1.081861         1.047932
 H        -0.281620         1.275298         2.701602
 H         0.394591         2.342617         1.530820
 H        -3.205935         3.534661         0.568767
 H        -1.779449         4.249784         1.271028
 H        -1.893611         2.995284        -1.744674
 H        -0.418644         3.349352        -0.686884
 H        -2.431712         0.783030        -0.638874
 H        -1.579055        -0.570527         2.508032
 H        -2.395431        -0.732205         0.994062
