19
Iteration:   293
 O         0.218516        -0.362066         0.273719
 C        -0.666237         0.623165         0.692805
 C        -0.331408         1.746753         1.649973
 C        -1.906503         2.102641         1.241204
 C        -2.247711         3.453177         0.584477
 C        -1.254154         2.884550        -0.582450
 C        -1.530809         1.403637        -0.151427
 O        -2.693484         1.162441         1.948634
 C        -1.892715        -0.034445         1.617708
 H         0.933501        -0.416978         1.063973
 H        -0.057787         1.324320         2.720183
 H         0.271195         2.508666         1.371418
 H        -3.319526         3.466995         0.313855
 H        -1.907265         4.315866         1.156003
 H        -1.493951         3.106909        -1.651392
 H        -0.234990         3.364332        -0.570914
 H        -2.401138         0.991520        -0.790906
 H        -1.781507        -0.586360         2.539446
 H        -2.474500        -0.765476         1.019088
