19
Iteration:   826
 O         0.207452        -0.379314         0.223092
 C        -0.704620         0.573784         0.806189
 C        -0.379014         1.759117         1.773222
 C        -1.894737         2.110127         1.263949
 C        -2.210998         3.479132         0.532991
 C        -1.323430         3.009841        -0.665499
 C        -1.441911         1.505358        -0.152810
 O        -2.677223         1.050346         1.961318
 C        -1.858584        -0.053267         1.580463
 H         0.767606        -0.790361         0.822149
 H        -0.218034         1.527848         2.807869
 H         0.355801         2.588575         1.340526
 H        -3.237904         3.450824         0.231069
 H        -1.952853         4.441543         1.069934
 H        -1.987668         2.986021        -1.604951
 H        -0.264968         3.330303        -0.696429
 H        -2.169650         0.810386        -0.770219
 H        -1.588149        -0.616987         2.471259
 H        -2.446202        -0.803450         1.074466
