19
Iteration:  3309charge 0 multiplicity 1
 O         0.218687        -0.493805         0.369604
 C        -0.672100         0.522476         0.805029
 C        -0.426575         1.773655         1.697656
 C        -1.881368         2.130081         1.256663
 C        -2.258569         3.445196         0.539003
 C        -1.243503         2.988003        -0.614985
 C        -1.470408         1.501002        -0.163510
 O        -2.683679         1.139144         1.910932
 C        -1.878555        -0.079350         1.535053
 H         1.015191         0.061787         0.141448
 H        -0.227733         1.673105         2.751793
 H         0.306592         2.514664         1.272025
 H        -3.209581         3.600900         0.210415
 H        -2.141671         4.412221         1.026300
 H        -1.810096         3.413279        -1.595778
 H        -0.260784         3.433766        -0.554886
 H        -2.295494         1.022073        -0.626799
 H        -1.481698        -0.696736         2.433699
 H        -2.500679        -0.874807         1.157763
