19
Iteration:  2414
 O         0.313452        -0.375827         0.389334
 C        -0.647662         0.595320         0.794604
 C        -0.390567         1.668029         1.746473
 C        -1.896467         2.105629         1.219922
 C        -2.173745         3.518797         0.642071
 C        -1.338522         3.006175        -0.651256
 C        -1.457663         1.530368        -0.141235
 O        -2.761447         1.086702         1.846336
 C        -1.869249        -0.050633         1.454804
 H        -0.163535        -1.307881         0.455807
 H        -0.550662         1.189122         2.791382
 H         0.399718         2.315589         1.619903
 H        -3.237118         3.634107         0.519724
 H        -1.645850         4.258494         1.319333
 H        -1.825440         3.206740        -1.720622
 H        -0.293817         3.411441        -0.621092
 H        -2.226740         0.965889        -0.616658
 H        -1.540691        -0.681991         2.314585
 H        -2.473270        -0.575215         0.740975
