19
Iteration:  3376charge 0 multiplicity 1
 O         0.439333        -0.289817         0.376803
 C        -0.696548         0.517578         0.796896
 C        -0.432115         1.723065         1.682554
 C        -1.883501         2.025590         1.203257
 C        -2.095872         3.514814         0.602173
 C        -1.332080         2.979719        -0.641715
 C        -1.581156         1.461522        -0.175305
 O        -2.734353         1.129033         1.873058
 C        -1.971404        -0.067129         1.589412
 H        -0.055900        -1.114607         0.124781
 H        -0.121041         1.417732         2.702039
 H         0.342206         2.397611         1.504130
 H        -3.000193         3.755211         0.261316
 H        -1.917815         4.308840         1.328867
 H        -1.722528         3.112763        -1.700276
 H        -0.276754         3.358174        -0.490461
 H        -2.357803         1.180272        -0.796259
 H        -1.688489        -0.585605         2.583970
 H        -2.580046        -0.847344         1.156636
