19
Iteration:  1317
 O         0.280117        -0.341232         0.239053
 C        -0.722925         0.565539         0.759833
 C        -0.351157         1.733382         1.760230
 C        -1.882860         2.059400         1.269183
 C        -2.176745         3.443687         0.620283
 C        -1.296193         2.938482        -0.699807
 C        -1.452393         1.486596        -0.125070
 O        -2.765049         1.170083         1.905986
 C        -1.925380        -0.120425         1.577170
 H         0.960316        -0.502697         0.834885
 H        -0.242543         1.634724         2.885730
 H         0.393599         2.433586         1.387349
 H        -3.276014         3.761802         0.405900
 H        -1.724172         4.393145         1.174599
 H        -1.927349         2.910664        -1.688290
 H        -0.369855         3.377651        -0.820511
 H        -2.222262         0.919317        -0.580400
 H        -1.612272        -0.461042         2.518588
 H        -2.548031        -0.741652         0.974926
