19
Iteration:   867
 O         0.361341        -0.287885         0.333030
 C        -0.714121         0.512703         0.711705
 C        -0.428000         1.720625         1.632440
 C        -1.916840         2.058450         1.186640
 C        -2.195082         3.491404         0.680675
 C        -1.285035         2.980359        -0.615588
 C        -1.616518         1.409221        -0.243738
 O        -2.622544         1.171196         1.987599
 C        -1.931601        -0.080425         1.599088
 H         0.550308        -1.019053         1.015667
 H        -0.335079         1.626383         2.742434
 H         0.360378         2.362559         1.171783
 H        -3.205140         3.563761         0.207378
 H        -1.888813         4.322892         1.340902
 H        -1.826847         3.308370        -1.441320
 H        -0.109932         3.242710        -0.601905
 H        -2.314121         1.038478        -1.142574
 H        -1.455274        -0.562217         2.462188
 H        -2.564325        -0.852174         1.060548
