19
Iteration:  4535charge 0 multiplicity 1
 O         0.219848        -0.433013         0.322523
 C        -0.682254         0.543492         0.830767
 C        -0.387149         1.816919         1.596150
 C        -1.845774         2.072361         1.196346
 C        -2.230189         3.406375         0.560797
 C        -1.411560         2.970493        -0.689434
 C        -1.518809         1.454100        -0.154341
 O        -2.631845         1.189273         1.978521
 C        -1.823920        -0.041624         1.658323
 H         0.787709        -0.712481         0.996621
 H        -0.253674         1.671006         2.664050
 H         0.271380         2.533289         1.100046
 H        -3.266672         3.631847         0.232241
 H        -1.751835         4.394588         0.974423
 H        -1.840510         3.199648        -1.676106
 H        -0.284744         3.181352        -0.542713
 H        -2.388888         0.911585        -0.644766
 H        -1.429349        -0.618511         2.471584
 H        -2.473416        -0.690359         0.985969
