19
Iteration:  1323charge 0 multiplicity 1
 O         0.243883        -0.339170         0.252318
 C        -0.685583         0.569027         0.785798
 C        -0.371598         1.724873         1.714975
 C        -1.889073         2.066278         1.232800
 C        -2.169766         3.477496         0.587628
 C        -1.297724         2.948673        -0.674622
 C        -1.477042         1.502239        -0.063806
 O        -2.767815         1.144375         1.912361
 C        -1.882061        -0.130033         1.567653
 H         1.063176        -0.557731         0.836988
 H        -0.240335         1.658286         2.843732
 H         0.399549         2.376705         1.295073
 H        -3.166387         3.688803         0.256698
 H        -1.790100         4.282844         1.095221
 H        -1.851864         2.951965        -1.546356
 H        -0.248556         3.468864        -0.783311
 H        -2.324178         0.990219        -0.638156
 H        -1.540403        -0.653219         2.543085
 H        -2.665180        -0.724263         1.013851
