19
Iteration:  3815
 O         0.343160        -0.394537         0.383870
 C        -0.722281         0.565948         0.799047
 C        -0.395820         1.744551         1.631019
 C        -1.904264         2.105536         1.180903
 C        -2.283748         3.488852         0.659656
 C        -1.307454         2.910441        -0.610071
 C        -1.512923         1.338672        -0.211992
 O        -2.621161         1.223770         1.912297
 C        -1.901591        -0.045961         1.643954
 H         0.444436        -0.131199        -0.636574
 H        -0.393434         1.718801         2.772078
 H         0.464624         2.276852         1.224150
 H        -3.361763         3.534227         0.420766
 H        -1.888016         4.289404         1.333199
 H        -1.713285         3.230122        -1.663587
 H        -0.258367         3.239195        -0.623568
 H        -2.252244         0.906079        -0.827207
 H        -1.653782        -0.705622         2.589775
 H        -2.614802        -0.654853         0.930708
