19
Iteration:  1671charge 0 multiplicity 1
 O         0.317150        -0.393483         0.441601
 C        -0.725567         0.543997         0.717981
 C        -0.420242         1.745553         1.653166
 C        -1.924573         2.059536         1.167684
 C        -2.096400         3.467429         0.716973
 C        -1.267508         2.994769        -0.526633
 C        -1.589689         1.483809        -0.219304
 O        -2.665709         1.093172         1.883123
 C        -1.942627        -0.061712         1.497727
 H         0.801968        -0.116030        -0.420759
 H        -0.272607         1.585803         2.823927
 H         0.411332         2.378199         1.420081
 H        -3.075665         3.651137         0.298930
 H        -2.026019         4.360364         1.376732
 H        -1.727812         3.328565        -1.508127
 H        -0.215338         3.217789        -0.421444
 H        -2.489675         1.075669        -0.745949
 H        -1.655099        -0.524685         2.422769
 H        -2.590291        -0.691109         0.832242
