19
Iteration:  2495
 O         0.281357        -0.323480         0.320781
 C        -0.722283         0.550015         0.793921
 C        -0.460909         1.698168         1.813111
 C        -1.890144         2.103467         1.197505
 C        -2.178098         3.480195         0.593480
 C        -1.162234         2.969113        -0.577719
 C        -1.489405         1.487189        -0.125204
 O        -2.734730         1.066102         1.860081
 C        -1.888997        -0.063559         1.547758
 H         0.148125        -0.547958        -0.705694
 H        -0.509243         1.619376         2.859210
 H         0.350489         2.504740         1.570312
 H        -3.282970         3.466349         0.326348
 H        -1.946386         4.416779         1.095703
 H        -1.638474         3.123668        -1.697558
 H        -0.138796         3.450964        -0.653033
 H        -2.312453         1.043936        -0.746784
 H        -1.475906        -0.637718         2.471357
 H        -2.449601        -0.751120         1.038744
