19
Iteration:  2770
 O         0.379579        -0.297969         0.386780
 C        -0.729960         0.540708         0.744024
 C        -0.440090         1.653038         1.676148
 C        -1.905797         2.094890         1.214152
 C        -2.212936         3.448900         0.564294
 C        -1.176656         3.005085        -0.501487
 C        -1.540093         1.499858        -0.176065
 O        -2.708207         1.151729         1.894166
 C        -1.950962        -0.118339         1.572075
 H         0.051410        -0.800958        -0.405823
 H        -0.405289         1.397372         2.765553
 H         0.438206         2.209964         1.345666
 H        -3.189485         3.610713         0.136562
 H        -2.157076         4.376292         1.293993
 H        -1.553058         3.210057        -1.497711
 H        -0.124944         3.368727        -0.647271
 H        -2.353417         1.160338        -0.781819
 H        -1.492181        -0.546826         2.594804
 H        -2.490213        -0.863848         0.949931
