19
Iteration:  2878charge 0 multiplicity 1
 O         0.340943        -0.450199         0.500008
 C        -0.683540         0.488297         0.776226
 C        -0.357262         1.774596         1.677698
 C        -1.860519         2.022323         1.206636
 C        -2.218431         3.459912         0.627088
 C        -1.330651         3.087400        -0.589458
 C        -1.467154         1.572929        -0.211904
 O        -2.693578         1.138781         1.861635
 C        -2.002963        -0.131652         1.510223
 H         0.296983        -0.950704        -0.427890
 H        -0.143147         1.697304         2.787296
 H         0.337012         2.560607         1.177285
 H        -3.343756         3.529494         0.376113
 H        -1.993111         4.466264         1.311236
 H        -1.785413         3.207046        -1.535489
 H        -0.296576         3.577816        -0.356009
 H        -2.269158         1.176804        -0.858128
 H        -1.548680        -0.646225         2.381600
 H        -2.577812        -0.658094         0.768408
