19
Iteration:   689charge 0 multiplicity 1
 O         0.264685        -0.339355         0.247905
 C        -0.697882         0.552750         0.773192
 C        -0.380243         1.740440         1.705447
 C        -1.907830         2.102224         1.193479
 C        -2.286664         3.425003         0.574628
 C        -1.256189         2.961493        -0.592813
 C        -1.503156         1.452057        -0.153793
 O        -2.671629         1.196177         1.952242
 C        -1.887549        -0.115288         1.595271
 H         0.833015        -0.771921         0.928701
 H        -0.258131         1.633240         2.753835
 H         0.481017         2.260407         1.217727
 H        -3.305616         3.623959         0.217565
 H        -1.894861         4.224435         1.205631
 H        -1.596047         3.147200        -1.600595
 H        -0.198927         3.350954        -0.457956
 H        -2.392036         1.101026        -0.792571
 H        -1.598652        -0.628429         2.483489
 H        -2.543332        -0.802574         1.053562
