19
Iteration:  2270
 O         0.280881        -0.434387         0.424390
 C        -0.707678         0.485411         0.739750
 C        -0.455913         1.665727         1.631257
 C        -1.845579         2.105837         1.136212
 C        -2.225862         3.516680         0.617640
 C        -1.302287         3.105544        -0.518889
 C        -1.517613         1.502426        -0.231553
 O        -2.647009         1.129694         1.876706
 C        -1.944134        -0.143068         1.587766
 H         1.090476         0.087575         0.521448
 H        -0.327830         1.411600         2.708118
 H         0.444147         2.327775         1.204912
 H        -3.247804         3.407658         0.407801
 H        -1.786668         4.385065         1.285370
 H        -1.640988         3.254370        -1.542127
 H        -0.186892         3.529702        -0.267574
 H        -2.445012         1.284363        -0.828647
 H        -1.538098        -0.584122         2.482470
 H        -2.534825        -0.830377         1.022775
