19
Iteration:  2041
 O         0.227761        -0.415150         0.452930
 C        -0.692766         0.640135         0.679369
 C        -0.422567         1.826637         1.710121
 C        -1.913321         2.049229         1.249440
 C        -2.178141         3.433407         0.638845
 C        -1.246550         2.913088        -0.515686
 C        -1.547868         1.520064        -0.191166
 O        -2.640818         1.066654         1.869077
 C        -1.914523        -0.046438         1.474294
 H         0.657095        -0.332141        -0.494192
 H        -0.332900         1.480918         2.770981
 H         0.046986         2.775566         1.441424
 H        -3.095813         3.763187         0.156633
 H        -1.773059         4.327350         1.283774
 H        -1.451717         3.232332        -1.553879
 H        -0.128692         3.066110        -0.534377
 H        -2.257313         0.934613        -0.756927
 H        -1.603388        -0.699192         2.409232
 H        -2.482738        -0.742444         0.950523
