19
Iteration:  2059
 O         0.278178        -0.407350         0.478372
 C        -0.719299         0.563617         0.736943
 C        -0.505859         1.819378         1.619970
 C        -1.952432         2.061280         1.102388
 C        -2.146700         3.489663         0.661347
 C        -1.182192         3.022894        -0.526037
 C        -1.578516         1.440206        -0.239548
 O        -2.668897         1.084232         1.991341
 C        -1.855995        -0.097892         1.508773
 H         0.583438        -0.221597        -0.520349
 H        -0.530487         1.623587         2.703838
 H         0.359916         2.349065         1.324023
 H        -3.193923         3.585568         0.408612
 H        -1.739575         4.188442         1.275872
 H        -1.340073         3.475133        -1.573956
 H        -0.185364         3.293294        -0.311546
 H        -2.427998         1.091319        -0.911119
 H        -1.533449        -0.766574         2.340055
 H        -2.467649        -0.774178         0.754493
