19
Iteration:  4012
 O         0.280943        -0.408650         0.516251
 C        -0.733256         0.565101         0.703668
 C        -0.393284         1.770583         1.568130
 C        -1.896641         2.113078         1.218605
 C        -2.230246         3.451938         0.628435
 C        -1.310769         2.975696        -0.694383
 C        -1.475670         1.462267        -0.221951
 O        -2.653083         1.095680         2.024619
 C        -1.886904        -0.031742         1.527248
 H         0.505851        -0.609197        -0.499883
 H        -0.239032         1.466863         2.643982
 H         0.377109         2.589918         1.347387
 H        -3.294661         3.601882         0.478407
 H        -1.862797         4.302303         1.311298
 H        -1.894644         3.336207        -1.659311
 H        -0.303303         3.270919        -0.491147
 H        -2.254493         0.882326        -0.753800
 H        -1.408404        -0.490843         2.391862
 H        -2.565175        -0.760044         1.189411
