19
Iteration:   193charge 0 multiplicity 1
 O         0.301246        -0.316585         0.272934
 C        -0.739358         0.468974         0.805730
 C        -0.430786         1.699455         1.658024
 C        -1.839186         2.101600         1.134069
 C        -2.227718         3.483120         0.615192
 C        -1.338383         3.020311        -0.659416
 C        -1.483745         1.380926        -0.181858
 O        -2.651916         1.171332         1.972878
 C        -1.888291        -0.003156         1.656988
 H         0.698951        -0.900379         1.006898
 H        -0.538206         1.484482         2.782790
 H         0.262332         2.249176         1.206048
 H        -3.294306         3.556668         0.310951
 H        -1.832163         4.392951         1.061159
 H        -1.652904         3.148420        -1.659813
 H        -0.244769         3.345597        -0.353728
 H        -2.346793         0.845146        -0.778813
 H        -1.546656        -0.639602         2.530331
 H        -2.539226        -0.699127         0.973300
