19
Iteration:  4076
 O         0.244439        -0.345489         0.326873
 C        -0.694177         0.542552         0.727792
 C        -0.375844         1.703426         1.668170
 C        -1.923342         2.083520         1.221646
 C        -2.206154         3.382714         0.608999
 C        -1.315282         2.939387        -0.711103
 C        -1.522894         1.493078        -0.163951
 O        -2.642176         1.156622         1.939069
 C        -1.878164        -0.001721         1.657279
 H         1.105070        -0.021291         0.672632
 H        -0.480479         1.365042         2.722210
 H         0.424798         2.413704         1.295136
 H        -3.258633         3.346405         0.273952
 H        -1.941729         4.385302         1.245922
 H        -1.727911         3.067101        -1.788576
 H        -0.228756         3.013615        -0.666594
 H        -2.564997         1.104762        -0.638086
 H        -1.528619        -0.261435         2.633127
 H        -2.462002        -0.838981         1.246951
