19
Iteration:  3903
 O         0.402874        -0.250383         0.372507
 C        -0.730534         0.536217         0.746678
 C        -0.408754         1.697327         1.588275
 C        -1.914443         2.076611         1.143263
 C        -2.100597         3.487422         0.656162
 C        -1.286332         2.956053        -0.574831
 C        -1.573070         1.406044        -0.165252
 O        -2.758763         1.124063         1.956578
 C        -1.895812        -0.032777         1.572592
 H         0.103296        -1.171220         0.661542
 H        -0.119979         1.767743         2.678189
 H         0.314508         2.302949         1.025292
 H        -3.104473         3.505237         0.355936
 H        -1.859419         4.309618         1.337269
 H        -1.825031         3.207552        -1.579182
 H        -0.366526         3.293308        -0.960727
 H        -2.379127         0.851357        -0.596190
 H        -1.589644        -0.517590         2.577676
 H        -2.576414        -0.776180         0.994426
