19
Iteration:  2434
 O         0.380256        -0.362226         0.456355
 C        -0.727722         0.506652         0.718869
 C        -0.434179         1.743368         1.731715
 C        -1.814993         2.041979         1.214196
 C        -2.150420         3.453794         0.712247
 C        -1.334707         3.070217        -0.580733
 C        -1.503448         1.521178        -0.256076
 O        -2.677003         1.140233         1.807458
 C        -1.974253        -0.097342         1.463196
 H         0.107807        -1.350858         0.643180
 H        -0.305228         1.657349         2.868055
 H         0.206709         2.455497         1.276232
 H        -3.165541         3.470317         0.447883
 H        -1.681776         4.343262         1.288778
 H        -1.985318         3.287739        -1.372517
 H        -0.279951         3.410453        -0.520107
 H        -2.368909         1.004136        -0.747055
 H        -1.729175        -0.593697         2.367369
 H        -2.780591        -0.738679         0.843229
