19
Iteration:  1475charge 0 multiplicity 1
 O         0.242088        -0.348850         0.295150
 C        -0.670077         0.606353         0.661215
 C        -0.283028         1.743402         1.620110
 C        -1.872240         2.047454         1.245167
 C        -2.220710         3.419326         0.580803
 C        -1.260280         2.916913        -0.550361
 C        -1.574897         1.498202        -0.155265
 O        -2.744473         1.128907         1.898895
 C        -1.938742        -0.049126         1.670525
 H         1.004643        -0.457607         0.988815
 H        -0.165731         1.384905         2.644723
 H         0.413243         2.396093         1.226271
 H        -3.308923         3.515892         0.390352
 H        -1.780070         4.302997         1.180648
 H        -1.521604         3.272164        -1.514753
 H        -0.178485         3.325394        -0.413586
 H        -2.463804         1.043947        -0.696376
 H        -1.588678        -0.518966         2.592846
 H        -2.555318        -0.668813         0.983963
