19
Iteration:   633charge 0 multiplicity 1
 O         0.281409        -0.320409         0.258064
 C        -0.607075         0.539101         0.825203
 C        -0.433509         1.760188         1.657383
 C        -1.871740         2.147457         1.227203
 C        -2.142953         3.454791         0.626364
 C        -1.355162         2.955195        -0.629175
 C        -1.490544         1.382741        -0.135087
 O        -2.716703         1.117301         1.876893
 C        -1.962775        -0.057691         1.627952
 H         0.834435        -0.836480         1.001467
 H        -0.266197         1.641756         2.658266
 H         0.430677         2.357649         1.156765
 H        -3.176236         3.618050         0.374646
 H        -1.799620         4.351982         1.218302
 H        -1.930692         3.080665        -1.610093
 H        -0.349103         3.342679        -0.689841
 H        -2.386057         0.922253        -0.688910
 H        -1.576836        -0.513339         2.560308
 H        -2.468341        -0.627569         0.818873
