19
Iteration:  1738
 O         0.392706        -0.283999         0.374406
 C        -0.726512         0.448797         0.701857
 C        -0.392127         1.696186         1.673990
 C        -1.846130         2.062548         1.202138
 C        -2.174486         3.416288         0.645725
 C        -1.259527         3.018489        -0.493707
 C        -1.535824         1.499716        -0.218513
 O        -2.750658         1.151159         1.897794
 C        -1.983857        -0.049436         1.517819
 H         0.165838        -1.144247         0.058723
 H        -0.352810         1.441340         2.872250
 H         0.445662         2.274474         1.319580
 H        -3.232892         3.642167         0.315536
 H        -1.972124         4.343559         1.232672
 H        -1.466280         3.510386        -1.514856
 H        -0.197568         3.290259        -0.304984
 H        -2.463922         1.086718        -0.751295
 H        -1.538802        -0.347534         2.445141
 H        -2.650848        -0.812043         0.980592
