19
Iteration:  4594charge 0 multiplicity 1
 O         0.335130        -0.268884         0.291865
 C        -0.725505         0.541872         0.775618
 C        -0.365736         1.787037         1.552724
 C        -1.822935         2.116274         1.168579
 C        -2.230714         3.461796         0.602590
 C        -1.287092         2.871010        -0.657326
 C        -1.620543         1.379148        -0.123941
 O        -2.687960         1.171271         1.980676
 C        -1.907179        -0.075111         1.696179
 H         0.376562        -1.089944         0.911519
 H        -0.059254         1.609992         2.594598
 H         0.382830         2.476886         1.156562
 H        -3.236808         3.621799         0.137547
 H        -1.811099         4.500910         1.042405
 H        -1.697410         3.064487        -1.675590
 H        -0.255528         3.104317        -0.738876
 H        -2.478299         0.849951        -0.523164
 H        -1.463561        -0.453704         2.636144
 H        -2.611067        -0.832903         1.284167
