19
Iteration:  3443
 O         0.337809        -0.396421         0.410243
 C        -0.728039         0.587431         0.737885
 C        -0.434074         1.761497         1.615922
 C        -1.906203         2.084278         1.154781
 C        -2.252320         3.433196         0.599134
 C        -1.250512         3.048357        -0.564067
 C        -1.480715         1.511521        -0.179037
 O        -2.656162         1.119839         1.928772
 C        -1.932190        -0.060312         1.574215
 H         0.073119        -1.348194         0.154271
 H        -0.201355         1.546398         2.687879
 H         0.338405         2.447801         1.420018
 H        -3.279041         3.280511         0.482041
 H        -2.023221         4.347976         1.114397
 H        -1.387292         3.015428        -1.618527
 H        -0.133293         3.392973        -0.394684
 H        -2.331735         1.080471        -0.659041
 H        -1.742727        -0.629231         2.565152
 H        -2.423591        -0.825003         0.919385
