19
Iteration:  3511charge 0 multiplicity 1
 O         0.238988        -0.341671         0.432795
 C        -0.702670         0.545269         0.772174
 C        -0.489728         1.798920         1.672343
 C        -1.885450         2.067453         1.175698
 C        -2.093465         3.503186         0.628567
 C        -1.258642         2.906722        -0.611694
 C        -1.578571         1.417526        -0.169977
 O        -2.726085         1.083461         1.959308
 C        -1.823875        -0.073257         1.530143
 H         0.737289         0.077850        -0.346239
 H        -0.325910         1.683225         2.736327
 H         0.292995         2.584879         1.362351
 H        -3.158296         3.609670         0.388196
 H        -1.578315         4.282210         1.053739
 H        -1.780603         3.314299        -1.490190
 H        -0.227806         3.324514        -0.781723
 H        -2.213590         0.971914        -0.976835
 H        -1.570311        -0.711846         2.386790
 H        -2.414761        -0.734219         0.799629
