19
Iteration:  4577
 O         0.281050        -0.285953         0.290574
 C        -0.697701         0.527272         0.805403
 C        -0.378633         1.821564         1.681023
 C        -1.906185         2.072927         1.231342
 C        -2.103750         3.405871         0.509912
 C        -1.416733         2.863259        -0.681469
 C        -1.614750         1.410002        -0.174764
 O        -2.603069         1.177000         2.006285
 C        -1.870713        -0.014078         1.635632
 H         0.468197        -1.101401         0.793066
 H        -0.257911         1.850670         2.760026
 H         0.474672         2.355298         1.179945
 H        -3.185903         3.475357         0.345387
 H        -1.808531         4.219111         1.012067
 H        -1.705387         3.115009        -1.735319
 H        -0.331141         3.240072        -0.628865
 H        -2.442330         0.930859        -0.731440
 H        -1.727179        -0.530269         2.621286
 H        -2.484458        -0.580012         0.910654
