19
Iteration:  1296charge 0 multiplicity 1
 O         0.330529        -0.315371         0.290190
 C        -0.654591         0.604773         0.731744
 C        -0.454950         1.705638         1.737221
 C        -1.801983         2.047289         1.199871
 C        -2.080928         3.401959         0.656190
 C        -1.409512         2.931606        -0.597583
 C        -1.534492         1.379555        -0.204844
 O        -2.714431         1.211125         1.872003
 C        -1.946647        -0.017216         1.583197
 H         1.009972        -0.819669         0.870540
 H        -0.506854         1.491773         2.772395
 H         0.356665         2.423551         1.580826
 H        -3.180962         3.517818         0.438040
 H        -1.762299         4.404053         1.161517
 H        -2.060604         3.203903        -1.528075
 H        -0.442957         3.274357        -0.599343
 H        -2.287994         0.783385        -0.662608
 H        -1.665224        -0.526204         2.467716
 H        -2.732959        -0.457224         0.987091
