19
Iteration:  2080
 O         0.321372        -0.394067         0.403237
 C        -0.686276         0.490644         0.714132
 C        -0.441226         1.707572         1.646122
 C        -1.931261         2.060188         1.247370
 C        -2.158694         3.510290         0.625954
 C        -1.244066         3.034778        -0.582434
 C        -1.451746         1.522132        -0.182584
 O        -2.708926         1.110057         1.892400
 C        -2.003220        -0.112829         1.614391
 H         0.909510        -0.050208        -0.282389
 H        -0.176845         1.459554         2.700060
 H         0.266016         2.425646         1.326651
 H        -3.219165         3.566859         0.243168
 H        -1.913197         4.307503         1.234497
 H        -1.817858         3.209066        -1.556574
 H        -0.336900         3.560521        -0.617311
 H        -2.137513         1.156459        -1.010035
 H        -1.648478        -0.544423         2.507390
 H        -2.742972        -0.838474         1.096663
