19
Iteration:  2032charge 0 multiplicity 1
 O         0.244366        -0.437077         0.407257
 C        -0.685507         0.607501         0.747453
 C        -0.444064         1.775553         1.750443
 C        -1.905201         2.086247         1.249818
 C        -2.162144         3.470578         0.628925
 C        -1.249670         2.959297        -0.585416
 C        -1.490974         1.469439        -0.162084
 O        -2.752087         1.084848         1.889255
 C        -1.871406        -0.053307         1.465925
 H         0.659618        -0.090057        -0.468208
 H        -0.148114         1.605163         2.795602
 H         0.401463         2.446757         1.300579
 H        -3.222602         3.426613         0.243409
 H        -1.848775         4.423696         1.251273
 H        -1.757819         3.180615        -1.491364
 H        -0.129319         3.286513        -0.590105
 H        -2.306699         1.055541        -0.718289
 H        -1.434122        -0.501657         2.356870
 H        -2.404829        -0.719608         0.804131
