19
Iteration:  2605
 O         0.243706        -0.435145         0.418679
 C        -0.676305         0.593423         0.763855
 C        -0.349492         1.744903         1.733849
 C        -1.861792         2.079281         1.204063
 C        -2.196501         3.373868         0.698996
 C        -1.366202         2.986966        -0.582838
 C        -1.404689         1.437521        -0.226786
 O        -2.723895         1.138957         1.814646
 C        -1.968620        -0.000695         1.501078
 H         1.002516         0.025352         0.061754
 H        -0.325079         1.529625         2.843745
 H         0.422718         2.448509         1.422949
 H        -3.250801         3.520944         0.572528
 H        -1.897534         4.302563         1.246019
 H        -1.689679         3.418746        -1.604202
 H        -0.324021         3.324911        -0.654112
 H        -2.327918         1.011572        -0.663027
 H        -1.597565        -0.503481         2.467055
 H        -2.466430        -0.662622         0.828090
