19
Iteration:  4571charge 0 multiplicity 1
 O         0.261028        -0.307351         0.289835
 C        -0.677164         0.532081         0.796389
 C        -0.427003         1.821279         1.660461
 C        -1.868997         2.072276         1.229972
 C        -2.166965         3.394526         0.564246
 C        -1.406219         2.852501        -0.739593
 C        -1.546312         1.451235        -0.166811
 O        -2.614773         1.183396         2.047862
 C        -1.848978        -0.021459         1.610658
 H         0.452659        -1.041141         0.813428
 H        -0.299692         1.766371         2.770826
 H         0.382346         2.444101         1.319673
 H        -3.196182         3.619697         0.234419
 H        -1.683926         4.424265         1.063309
 H        -1.693018         2.973300        -1.770494
 H        -0.326425         3.114874        -0.760409
 H        -2.370004         0.863467        -0.645816
 H        -1.711440        -0.592763         2.508881
 H        -2.608692        -0.545503         0.961519
