19
Iteration:  1026charge 0 multiplicity 1
 O         0.292015        -0.365310         0.265538
 C        -0.675939         0.542241         0.772802
 C        -0.376363         1.785566         1.776675
 C        -1.842020         2.100701         1.188894
 C        -2.149661         3.572081         0.614377
 C        -1.426142         2.989766        -0.669693
 C        -1.524640         1.418516        -0.186075
 O        -2.662523         1.120631         1.875589
 C        -1.911098        -0.126263         1.627515
 H         0.575515        -1.036109         1.036296
 H        -0.472105         1.458936         2.855542
 H         0.475344         2.386057         1.589722
 H        -3.265906         3.573558         0.597992
 H        -1.647971         4.405835         1.088499
 H        -1.948559         3.179651        -1.639127
 H        -0.464352         3.435682        -0.851119
 H        -2.443576         0.914733        -0.672601
 H        -1.584889        -0.677255         2.516677
 H        -2.438101        -0.845012         1.077774
