19
Iteration:  3709
 O         0.225119        -0.459847         0.362094
 C        -0.710050         0.528376         0.733561
 C        -0.403593         1.820380         1.698779
 C        -1.826460         2.083920         1.234749
 C        -2.246677         3.425830         0.562113
 C        -1.337022         2.957896        -0.608158
 C        -1.566849         1.456827        -0.144210
 O        -2.607323         1.176607         1.925500
 C        -1.852245        -0.029664         1.556426
 H         1.230385        -0.195267         0.558372
 H        -0.060801         1.490112         2.667821
 H         0.336788         2.338515         1.161889
 H        -3.392325         3.398383         0.322919
 H        -2.192944         4.387506         0.962862
 H        -1.721849         3.187300        -1.622230
 H        -0.353480         3.290905        -0.420560
 H        -2.430756         1.077463        -0.749187
 H        -1.609003        -0.420985         2.517308
 H        -2.393666        -0.680542         0.962730
