19
Iteration:  2368charge 0 multiplicity 1
 O         0.316081        -0.281800         0.358694
 C        -0.706236         0.543406         0.738996
 C        -0.406282         1.704149         1.688895
 C        -1.940430         2.029233         1.169716
 C        -2.255096         3.473373         0.666760
 C        -1.134762         2.945916        -0.507696
 C        -1.539740         1.462522        -0.240825
 O        -2.721855         1.155136         1.916443
 C        -1.926525        -0.076021         1.595053
 H         0.165133        -0.584856        -0.571800
 H        -0.289297         1.446672         2.778114
 H         0.340898         2.390576         1.194290
 H        -3.215492         3.496067         0.181217
 H        -1.893571         4.329669         1.415013
 H        -1.239958         3.297773        -1.537331
 H        -0.036738         3.205167        -0.224139
 H        -2.289631         1.016930        -0.972666
 H        -1.640330        -0.546746         2.482508
 H        -2.517571        -0.744917         0.889284
