19
Iteration:  4796charge 0 multiplicity 1
 O         0.255168        -0.421487         0.322387
 C        -0.691301         0.563668         0.773253
 C        -0.356677         1.869969         1.616522
 C        -1.843424         2.112742         1.190253
 C        -2.297136         3.442467         0.561407
 C        -1.338366         2.923817        -0.627574
 C        -1.560136         1.382564        -0.159555
 O        -2.548336         1.162363         2.049135
 C        -1.947537         0.007807         1.585034
 H         0.548852        -0.794367         1.123063
 H         0.055753         1.644230         2.637795
 H         0.338253         2.460936         1.017163
 H        -3.268749         3.221170         0.040568
 H        -2.236927         4.514473         0.993454
 H        -1.674555         3.095279        -1.597775
 H        -0.205708         3.054943        -0.618919
 H        -2.382441         0.972381        -0.762938
 H        -1.559823        -0.692701         2.357839
 H        -2.523136        -0.694407         0.958597
