19
Iteration:  1780
 O         0.330678        -0.353833         0.405181
 C        -0.731710         0.641810         0.745347
 C        -0.479931         1.752677         1.762498
 C        -1.894402         2.082548         1.166316
 C        -2.093271         3.459519         0.637017
 C        -1.276922         2.986923        -0.525346
 C        -1.540595         1.472278        -0.223101
 O        -2.667761         1.065560         1.917213
 C        -1.916389        -0.072215         1.476387
 H        -0.121045        -0.967402        -0.150923
 H        -0.591792         1.505109         2.933842
 H         0.208317         2.368734         1.279441
 H        -3.151474         3.601962         0.429093
 H        -1.584282         4.291207         1.224144
 H        -1.578592         3.318989        -1.592873
 H        -0.241843         3.302755        -0.591014
 H        -2.253984         0.896410        -0.823681
 H        -1.435285        -0.688329         2.312559
 H        -2.669198        -0.629149         0.719132
