19
Iteration:  4691charge 0 multiplicity 1
 O         0.287640        -0.304192         0.314176
 C        -0.710423         0.463292         0.764562
 C        -0.428041         1.724279         1.625680
 C        -1.854867         2.075674         1.182629
 C        -2.256944         3.446208         0.564451
 C        -1.369685         2.892021        -0.655112
 C        -1.556255         1.371295        -0.161246
 O        -2.560393         1.259052         1.987276
 C        -1.912937        -0.033537         1.619466
 H         1.022519        -0.459221         1.087685
 H        -0.321245         1.736222         2.719327
 H         0.489186         2.197710         1.237157
 H        -3.306285         3.625403         0.336039
 H        -1.859014         4.284394         1.218140
 H        -1.614718         3.197326        -1.729342
 H        -0.274084         3.206685        -0.642672
 H        -2.534540         1.013172        -0.625163
 H        -1.464437        -0.395078         2.516852
 H        -2.719586        -0.686237         1.130094
