19
Iteration:   934charge 0 multiplicity 1
 O         0.232265        -0.369628         0.206401
 C        -0.663190         0.571879         0.770229
 C        -0.411986         1.780107         1.695661
 C        -1.923263         2.042496         1.230200
 C        -2.189125         3.405223         0.594784
 C        -1.284931         2.975826        -0.592232
 C        -1.505251         1.464712        -0.157975
 O        -2.667449         1.094958         1.950435
 C        -1.901416        -0.003176         1.613266
 H         0.797126        -0.676409         0.909964
 H        -0.187129         1.616959         2.724700
 H         0.274832         2.580154         1.196653
 H        -3.213559         3.493199         0.283955
 H        -1.752461         4.341729         1.030374
 H        -1.626592         3.246749        -1.615880
 H        -0.268218         3.563709        -0.448899
 H        -2.318379         0.796621        -0.738857
 H        -1.596720        -0.433085         2.575598
 H        -2.615043        -0.714856         1.081928
