19
Iteration:  2627
 O         0.309116        -0.388463         0.367692
 C        -0.711489         0.514332         0.745076
 C        -0.468246         1.699204         1.772088
 C        -1.900534         2.139188         1.211316
 C        -2.170976         3.465178         0.558265
 C        -1.271642         3.013816        -0.603829
 C        -1.464906         1.524710        -0.104873
 O        -2.715742         1.115002         1.917668
 C        -1.895604        -0.132624         1.544083
 H         0.617194        -0.094220        -0.539650
 H        -0.388019         1.420128         2.889930
 H         0.296569         2.393324         1.482309
 H        -3.183618         3.559307         0.213365
 H        -2.059875         4.453530         1.107053
 H        -1.583901         3.192977        -1.728776
 H        -0.206966         3.308758        -0.692531
 H        -2.224053         1.075100        -0.808157
 H        -1.632160        -0.701813         2.547826
 H        -2.544160        -0.653447         0.867078
