19
Iteration:  2384charge 0 multiplicity 1
 O         0.307531        -0.338708         0.304268
 C        -0.715409         0.536263         0.815916
 C        -0.496266         1.812702         1.681614
 C        -1.886811         2.092284         1.223718
 C        -2.128437         3.417948         0.604788
 C        -1.174865         3.020258        -0.561818
 C        -1.475347         1.507982        -0.102464
 O        -2.724632         1.071069         1.877522
 C        -1.928164        -0.100380         1.518402
 H        -0.117322        -0.891341        -0.275863
 H        -0.467992         1.674475         2.778173
 H         0.298544         2.448848         1.378543
 H        -3.220033         3.422292         0.297538
 H        -1.875742         4.242600         1.202803
 H        -1.645429         3.230082        -1.569193
 H        -0.205087         3.333246        -0.333503
 H        -2.302943         1.066309        -0.602002
 H        -1.589348        -0.698189         2.466789
 H        -2.547985        -0.720839         0.947677
