19
Iteration:  1442charge 0 multiplicity 1
 O         0.274318        -0.346203         0.286740
 C        -0.704537         0.538610         0.730524
 C        -0.515194         1.773953         1.661842
 C        -1.927012         2.033969         1.180822
 C        -2.162819         3.428326         0.593092
 C        -1.256563         3.002893        -0.631168
 C        -1.510133         1.472731        -0.188236
 O        -2.610010         1.130438         2.002103
 C        -1.906467        -0.067577         1.622795
 H         0.574598        -0.939160         0.923626
 H        -0.486642         1.704626         2.731222
 H         0.315289         2.451830         1.387709
 H        -3.175093         3.775741         0.376061
 H        -1.597235         4.222984         1.248476
 H        -1.752527         3.196699        -1.542551
 H        -0.198756         3.526869        -0.622680
 H        -2.328292         1.052624        -0.850957
 H        -1.605879        -0.759985         2.426501
 H        -2.596801        -0.707090         1.022403
