19
Iteration:  1495
 O         0.219646        -0.415304         0.248745
 C        -0.698001         0.550460         0.786092
 C        -0.417982         1.713240         1.784939
 C        -1.851235         2.070884         1.266137
 C        -2.181174         3.454363         0.624923
 C        -1.325971         2.971759        -0.662981
 C        -1.493576         1.470680        -0.167966
 O        -2.695217         1.177740         1.919709
 C        -1.865726        -0.037699         1.546716
 H         1.107128        -0.386622         0.526740
 H        -0.436985         1.545715         2.832857
 H         0.288758         2.462470         1.315292
 H        -3.184618         3.370652         0.279101
 H        -1.925669         4.476523         1.151529
 H        -1.785519         3.183510        -1.578541
 H        -0.313698         3.437116        -0.816820
 H        -2.288973         0.950321        -0.673999
 H        -1.490483        -0.431750         2.422131
 H        -2.377171        -0.865236         1.071706
