19
Iteration:  2396
 O         0.295447        -0.363477         0.325633
 C        -0.658021         0.557700         0.748892
 C        -0.440408         1.775434         1.853812
 C        -1.898365         2.076004         1.263493
 C        -2.135140         3.522212         0.592191
 C        -1.261436         2.987744        -0.561226
 C        -1.480338         1.512164        -0.144161
 O        -2.715199         1.056298         1.865850
 C        -1.946875        -0.101468         1.483333
 H        -0.199266        -1.212678        -0.054464
 H        -0.215814         1.579669         2.876978
 H         0.260391         2.519590         1.379089
 H        -3.197977         3.688098         0.162803
 H        -1.929266         4.413328         1.071415
 H        -1.633733         3.189319        -1.596023
 H        -0.332269         3.409121        -0.811810
 H        -2.197050         1.100828        -0.857067
 H        -1.589668        -0.601697         2.465106
 H        -2.414486        -0.859673         0.831646
