19
Iteration:   266charge 0 multiplicity 1
 O         0.330100        -0.343300         0.282934
 C        -0.726246         0.466008         0.773631
 C        -0.512838         1.749703         1.586559
 C        -1.872436         2.128579         1.133696
 C        -2.216674         3.457978         0.639629
 C        -1.189818         3.011603        -0.629846
 C        -1.577486         1.433551        -0.201895
 O        -2.612199         1.138726         2.000149
 C        -1.952005        -0.069980         1.665090
 H         0.935986        -0.786234         1.041552
 H        -0.527836         1.652441         2.674504
 H         0.372890         2.422782         0.993540
 H        -3.250174         3.339773         0.298109
 H        -2.048486         4.315094         1.319015
 H        -1.612433         3.337489        -1.595651
 H        -0.120794         3.432000        -0.559387
 H        -2.444349         1.102838        -0.831616
 H        -1.577646        -0.581956         2.597070
 H        -2.657295        -0.821606         1.287540
