19
Iteration:   678
 O         0.288029        -0.357160         0.256930
 C        -0.705902         0.530554         0.734008
 C        -0.448491         1.713803         1.679879
 C        -1.943594         2.040455         1.177962
 C        -2.209573         3.441584         0.578340
 C        -1.235601         2.969367        -0.593185
 C        -1.562603         1.493616        -0.196936
 O        -2.648248         1.138139         2.040579
 C        -1.878978         0.005546         1.576225
 H         0.711765        -0.705029         1.167474
 H        -0.349974         1.544244         2.723403
 H         0.229914         2.555584         1.392386
 H        -3.272790         3.440493         0.298256
 H        -2.010372         4.416541         1.058048
 H        -1.467945         3.271965        -1.627686
 H        -0.148732         3.126538        -0.407379
 H        -2.266819         0.874691        -0.886997
 H        -1.373289        -0.411914         2.407193
 H        -2.489750        -0.679513         0.996984
