19
Iteration:  3191
 O         0.255316        -0.306990         0.229577
 C        -0.687062         0.540733         0.810295
 C        -0.421872         1.730806         1.724995
 C        -1.901715         2.092894         1.169793
 C        -2.211823         3.406985         0.526860
 C        -1.245144         2.981849        -0.617295
 C        -1.461801         1.458105        -0.127052
 O        -2.666057         1.146718         1.929438
 C        -1.924259        -0.072947         1.664525
 H         0.547062        -1.207056         0.693667
 H        -0.458203         1.653182         2.804992
 H         0.227621         2.609382         1.396324
 H        -3.391250         3.420762         0.431723
 H        -2.008032         4.470419         0.902625
 H        -1.598441         3.265496        -1.658643
 H        -0.246927         3.474470        -0.437006
 H        -2.182882         0.956291        -0.809325
 H        -1.624965        -0.665492         2.580251
 H        -2.461805        -0.803117         1.081939
