19
Iteration:  3451charge 0 multiplicity 1
 O         0.323300        -0.345126         0.440463
 C        -0.707513         0.567422         0.709969
 C        -0.374347         1.714536         1.704551
 C        -1.857003         2.076502         1.166921
 C        -2.254926         3.344907         0.593641
 C        -1.248935         3.014491        -0.591618
 C        -1.523402         1.556844        -0.230769
 O        -2.646986         1.136740         1.895277
 C        -1.956548        -0.050217         1.604131
 H        -0.049981        -1.204925        -0.075844
 H        -0.314901         1.455427         2.789105
 H         0.376673         2.440988         1.431262
 H        -3.356079         3.401908         0.454544
 H        -2.061891         4.392040         1.065765
 H        -1.638252         3.288330        -1.629008
 H        -0.256558         3.322483        -0.330774
 H        -2.267271         1.149454        -0.860822
 H        -1.579168        -0.570700         2.591382
 H        -2.610059        -0.762462         1.072858
