19
Iteration:  4918charge 0 multiplicity 1
 O         0.197850        -0.399134         0.319385
 C        -0.678360         0.531608         0.766768
 C        -0.301441         1.898855         1.641668
 C        -1.854133         2.131497         1.149760
 C        -2.273948         3.409561         0.516823
 C        -1.365021         2.898342        -0.629295
 C        -1.525955         1.424928        -0.161880
 O        -2.602639         1.178068         2.032276
 C        -1.910276        -0.037856         1.631024
 H         0.787364        -0.790647         1.034358
 H        -0.098288         1.670796         2.698331
 H         0.670695         2.329671         1.275070
 H        -3.379746         3.398807         0.361425
 H        -2.105768         4.396744         1.054951
 H        -1.552808         3.048172        -1.694588
 H        -0.269573         3.183302        -0.687991
 H        -2.365343         0.868721        -0.734180
 H        -1.735660        -0.678195         2.485900
 H        -2.582336        -0.700207         0.962447
