19
Iteration:  3835
 O         0.298491        -0.409741         0.425033
 C        -0.684861         0.594803         0.749314
 C        -0.383394         1.796926         1.599463
 C        -1.861718         2.058259         1.206080
 C        -2.231432         3.380727         0.551675
 C        -1.299628         2.964971        -0.569979
 C        -1.544102         1.478128        -0.165297
 O        -2.683473         1.155773         1.988984
 C        -1.920576        -0.037783         1.576655
 H         0.409795        -0.725796        -0.513446
 H        -0.077693         1.546210         2.658058
 H         0.242462         2.603289         1.171626
 H        -3.193076         3.256707         0.257604
 H        -1.974396         4.322913         1.120192
 H        -1.529426         3.365366        -1.593907
 H        -0.267605         3.365263        -0.553955
 H        -2.415682         1.074515        -0.708386
 H        -1.378995        -0.472464         2.453854
 H        -2.563709        -0.837501         1.080555
