19
Iteration:  4429charge 0 multiplicity 1
 O         0.302544        -0.361285         0.290424
 C        -0.639902         0.549434         0.698380
 C        -0.368804         1.797859         1.612387
 C        -1.816739         2.055694         1.166250
 C        -2.227343         3.471252         0.577762
 C        -1.372510         2.948403        -0.646087
 C        -1.569889         1.362968        -0.189329
 O        -2.644867         1.181795         1.989260
 C        -1.990157        -0.052875         1.739525
 H         0.930715        -0.449039         1.016037
 H        -0.100359         1.487037         2.672625
 H         0.352175         2.500031         1.181375
 H        -3.220874         3.533539         0.250290
 H        -1.896265         4.427598         1.097175
 H        -1.680898         3.049336        -1.682811
 H        -0.308177         3.365485        -0.692146
 H        -2.556257         1.009185        -0.635759
 H        -1.599268        -0.405308         2.781059
 H        -2.635673        -0.970680         1.385850
