19
Iteration:  3944
 O         0.288314        -0.342613         0.329602
 C        -0.655564         0.593710         0.748210
 C        -0.485225         1.793797         1.681436
 C        -1.906073         2.092828         1.212303
 C        -2.151048         3.457764         0.582721
 C        -1.269238         2.964299        -0.635119
 C        -1.571373         1.391787        -0.134649
 O        -2.691640         1.102678         1.994183
 C        -1.829371        -0.038993         1.552202
 H         0.006550        -1.206692         0.423837
 H        -0.371400         1.516775         2.814214
 H         0.373652         2.446452         1.488106
 H        -3.090125         3.656837         0.053690
 H        -1.937297         4.473978         1.180224
 H        -1.886927         3.262311        -1.610726
 H        -0.163469         3.247018        -0.688180
 H        -2.370620         0.917415        -0.829074
 H        -1.345316        -0.564409         2.321477
 H        -2.361202        -0.702262         0.945544
