19
Iteration:  4014charge 0 multiplicity 1
 O         0.270308        -0.405106         0.510812
 C        -0.736105         0.576349         0.712756
 C        -0.395218         1.787975         1.573840
 C        -1.903500         2.106745         1.220253
 C        -2.205883         3.449875         0.635247
 C        -1.317356         2.989238        -0.687009
 C        -1.493857         1.425049        -0.223698
 O        -2.649680         1.091984         2.023490
 C        -1.870760        -0.029963         1.513292
 H         0.500402        -0.551900        -0.428813
 H        -0.209348         1.559882         2.614947
 H         0.394348         2.580521         1.378401
 H        -3.270374         3.622372         0.483132
 H        -1.880218         4.235414         1.239538
 H        -1.868253         3.326037        -1.676455
 H        -0.258650         3.258289        -0.551633
 H        -2.214672         0.910803        -0.751820
 H        -1.462229        -0.526721         2.482387
 H        -2.604517        -0.802233         1.094901
