19
Iteration:  3565charge 0 multiplicity 1
 O         0.241221        -0.406034         0.321736
 C        -0.688133         0.527303         0.712419
 C        -0.375779         1.794786         1.656620
 C        -1.882486         2.073024         1.175734
 C        -2.295248         3.420997         0.627491
 C        -1.267592         2.965891        -0.586368
 C        -1.449287         1.497126        -0.113827
 O        -2.644390         1.153233         1.892175
 C        -1.939727        -0.037005         1.582784
 H         0.843227        -0.614848         1.153526
 H         0.021021         1.532405         2.648186
 H         0.435770         2.428094         1.121390
 H        -3.352795         3.488467         0.236305
 H        -2.171257         4.329873         1.250376
 H        -1.899856         3.229430        -1.466714
 H        -0.178738         3.352877        -0.605250
 H        -2.258462         1.008994        -0.705269
 H        -1.643875        -0.499625         2.617774
 H        -2.581867        -0.848254         1.023882
