19
Iteration:  2663charge 0 multiplicity 1
 O         0.268067        -0.254611         0.355046
 C        -0.729851         0.613061         0.752575
 C        -0.399446         1.762266         1.675920
 C        -2.022018         2.016007         1.194990
 C        -2.156708         3.442724         0.591255
 C        -1.185402         2.906580        -0.507665
 C        -1.465083         1.438960        -0.186685
 O        -2.736554         1.127913         1.923183
 C        -1.894519        -0.076136         1.577906
 H         0.229210        -0.584081        -0.627945
 H        -0.300908         1.470053         2.741431
 H         0.349010         2.526515         1.439260
 H        -3.101409         3.599048         0.237059
 H        -1.696976         4.226956         1.238846
 H        -1.442810         3.245527        -1.493181
 H        -0.110007         3.035094        -0.139540
 H        -2.217482         0.913678        -0.908634
 H        -1.599820        -0.689456         2.363181
 H        -2.397745        -0.685337         0.885113
