19
Iteration:  4198
 O         0.269268        -0.303050         0.353349
 C        -0.684565         0.575814         0.769717
 C        -0.448050         1.829218         1.668253
 C        -1.912992         2.061710         1.108285
 C        -2.207307         3.454273         0.601758
 C        -1.304919         2.884614        -0.654229
 C        -1.603712         1.441976        -0.225231
 O        -2.604464         1.125949         2.017201
 C        -1.803508        -0.055688         1.633552
 H         0.132335        -1.351805         0.477369
 H        -0.456281         1.587791         2.756367
 H         0.330571         2.577584         1.342523
 H        -3.144498         3.857374         0.142561
 H        -1.686066         4.255001         1.241738
 H        -1.497625         3.061503        -1.743929
 H        -0.265298         3.118745        -0.416638
 H        -2.554012         1.063223        -0.788468
 H        -1.525341        -0.567206         2.537749
 H        -2.403587        -0.798174         1.058685
