19
Iteration:  2919
 O         0.318726        -0.315695         0.321642
 C        -0.692788         0.545293         0.690849
 C        -0.458072         1.775130         1.763312
 C        -1.905935         2.104876         1.221852
 C        -2.175107         3.447463         0.598651
 C        -1.214097         2.956192        -0.554124
 C        -1.524113         1.508695        -0.113882
 O        -2.711589         1.075354         1.871642
 C        -1.885888        -0.063232         1.542105
 H        -0.058202        -1.075264         0.033741
 H        -0.578493         1.621282         2.886344
 H         0.267944         2.554726         1.459934
 H        -3.187565         3.506229         0.130240
 H        -1.758824         4.207801         1.094473
 H        -1.464046         3.298524        -1.611671
 H        -0.103221         3.011399        -0.295894
 H        -2.386042         1.068306        -0.811107
 H        -1.629444        -0.466970         2.487235
 H        -2.556008        -0.901267         1.109297
