19
Iteration:   652
 O         0.250647        -0.321172         0.294650
 C        -0.733905         0.547866         0.778058
 C        -0.402126         1.845106         1.644232
 C        -1.945933         2.055826         1.212262
 C        -2.188670         3.452867         0.595129
 C        -1.224580         2.920450        -0.583495
 C        -1.563745         1.479419        -0.213291
 O        -2.655817         1.116129         1.991716
 C        -1.883470        -0.156957         1.560671
 H         0.629731        -0.673733         1.188552
 H        -0.249365         1.724257         2.744068
 H         0.271940         2.545192         1.135952
 H        -3.209047         3.754861         0.375392
 H        -1.708649         4.313567         1.135059
 H        -1.560127         3.204571        -1.628360
 H        -0.201231         3.172125        -0.694116
 H        -2.296186         0.974516        -0.747682
 H        -1.391045        -0.526135         2.501673
 H        -2.514696        -0.677552         0.843872
