19
Iteration:   181
 O         0.320239        -0.335901         0.307811
 C        -0.697799         0.551921         0.692405
 C        -0.418433         1.707001         1.594013
 C        -1.930904         2.048795         1.193064
 C        -2.209743         3.419201         0.589599
 C        -1.241911         2.944837        -0.605280
 C        -1.529569         1.463455        -0.244182
 O        -2.680057         1.206651         2.045620
 C        -1.927975        -0.049280         1.668371
 H         0.669466        -0.717386         1.059705
 H        -0.120072         1.531568         2.667242
 H         0.301883         2.425262         1.382521
 H        -3.256393         3.433528         0.225500
 H        -2.098888         4.285551         1.248586
 H        -1.596966         3.285572        -1.564663
 H        -0.127460         3.333821        -0.653690
 H        -2.319117         0.976184        -0.979987
 H        -1.517567        -0.573506         2.549159
 H        -2.717740        -0.673150         1.113548
