19
Iteration:   547charge 0 multiplicity 1
 O         0.269790        -0.339967         0.264885
 C        -0.654365         0.602948         0.727811
 C        -0.415955         1.771991         1.698791
 C        -1.909940         2.020181         1.187168
 C        -2.198777         3.452631         0.542707
 C        -1.284674         2.947482        -0.546863
 C        -1.541897         1.435343        -0.217831
 O        -2.672714         1.188326         2.005908
 C        -1.889021        -0.068251         1.606504
 H         0.567320        -0.802107         1.015079
 H        -0.364153         1.474686         2.685180
 H         0.520953         2.484646         1.402673
 H        -3.233494         3.389489         0.236961
 H        -2.006687         4.340637         1.185145
 H        -1.724347         3.185498        -1.594034
 H        -0.224944         3.253958        -0.481343
 H        -2.237414         0.819493        -0.994931
 H        -1.527409        -0.631420         2.402156
 H        -2.603739        -0.762366         1.188467
