19
Iteration:  4572
 O         0.261592        -0.300284         0.289875
 C        -0.679575         0.527514         0.796680
 C        -0.421177         1.821469         1.663875
 C        -1.876557         2.069895         1.232865
 C        -2.154198         3.393359         0.557347
 C        -1.408405         2.854830        -0.731095
 C        -1.557109         1.447698        -0.170824
 O        -2.612566         1.182072         2.041556
 C        -1.849326        -0.019195         1.612096
 H         0.469462        -1.089382         0.825304
 H        -0.291397         1.792159         2.769312
 H         0.409877         2.426565         1.306703
 H        -3.203534         3.600523         0.238882
 H        -1.698263         4.397567         1.056703
 H        -1.674690         2.993672        -1.777894
 H        -0.377377         3.117089        -0.745445
 H        -2.364448         0.886408        -0.650296
 H        -1.731184        -0.580470         2.541423
 H        -2.580674        -0.526795         0.963087
