19
Iteration:  4098
 O         0.242379        -0.433283         0.297361
 C        -0.676390         0.526835         0.799928
 C        -0.366330         1.860394         1.598861
 C        -1.921086         2.154315         1.199117
 C        -2.235986         3.454373         0.542130
 C        -1.317582         2.916785        -0.530524
 C        -1.521018         1.406974        -0.192931
 O        -2.655760         1.163375         1.998926
 C        -1.854879        -0.117449         1.601369
 H         1.042613        -0.345583         0.881596
 H        -0.232257         1.798051         2.697750
 H         0.220191         2.595148         0.988892
 H        -3.299423         3.373144         0.250886
 H        -1.890290         4.497933         1.025901
 H        -1.667575         3.287485        -1.569843
 H        -0.279724         3.244911        -0.457730
 H        -2.441444         1.024283        -0.864985
 H        -1.548720        -0.663562         2.478919
 H        -2.587461        -0.657467         0.974983
