19
Iteration:  3693charge 0 multiplicity 1
 O         0.162120        -0.478349         0.366848
 C        -0.626646         0.617875         0.795189
 C        -0.365889         1.818319         1.651043
 C        -1.852486         2.161702         1.226328
 C        -2.224327         3.423408         0.581336
 C        -1.330459         2.910063        -0.666201
 C        -1.539786         1.503744        -0.143749
 O        -2.678701         1.102575         1.960220
 C        -1.851636        -0.098776         1.568503
 H         1.073101        -0.002020         0.147515
 H        -0.425867         1.863090         2.766706
 H         0.361811         2.681844         1.407299
 H        -3.223833         3.308006         0.219707
 H        -1.890854         4.421919         1.168722
 H        -1.634702         3.203229        -1.684039
 H        -0.230377         3.296734        -0.722920
 H        -2.388609         0.961141        -0.532135
 H        -1.325364        -0.751391         2.341320
 H        -2.577208        -0.745826         0.871139
