19
Iteration:   897charge 0 multiplicity 1
 O         0.276199        -0.347910         0.272338
 C        -0.651448         0.556223         0.772794
 C        -0.384340         1.767313         1.733304
 C        -1.879804         2.084489         1.259498
 C        -2.142038         3.474513         0.596445
 C        -1.367518         2.962273        -0.676598
 C        -1.558454         1.466857        -0.124304
 O        -2.671679         1.071240         1.918109
 C        -1.912190        -0.037039         1.560830
 H         0.567598        -0.961356         0.883836
 H        -0.212241         1.648095         2.855073
 H         0.269830         2.481244         1.357741
 H        -3.225668         3.753607         0.327770
 H        -1.766384         4.381670         1.084690
 H        -1.968690         3.125340        -1.552712
 H        -0.320875         3.431948        -0.806950
 H        -2.290505         0.973332        -0.702649
 H        -1.563402        -0.634912         2.513917
 H        -2.427861        -0.800032         0.886179
