19
Iteration:  3112charge 0 multiplicity 1
 O         0.334516        -0.345292         0.363615
 C        -0.689192         0.597476         0.763999
 C        -0.442593         1.723614         1.662499
 C        -1.915877         2.069095         1.195748
 C        -2.079960         3.419804         0.632404
 C        -1.349876         2.955548        -0.659877
 C        -1.480800         1.454910        -0.215661
 O        -2.713871         1.139932         1.906777
 C        -1.985673        -0.053572         1.602322
 H         1.146706        -0.444603         0.941569
 H        -0.303007         1.515886         2.704079
 H         0.380942         2.346931         1.400815
 H        -3.151938         3.596014         0.431343
 H        -1.738311         4.180576         1.419595
 H        -2.073671         3.113587        -1.562842
 H        -0.412732         3.395599        -0.731759
 H        -2.302807         0.996537        -0.654255
 H        -1.674037        -0.667328         2.465478
 H        -2.491201        -0.482188         0.838508
