19
Iteration:  1789charge 0 multiplicity 1
 O         0.303658        -0.357240         0.398612
 C        -0.641525         0.602482         0.739112
 C        -0.502112         1.742671         1.776945
 C        -1.891666         2.032203         1.207346
 C        -2.089272         3.465698         0.684764
 C        -1.312094         2.962823        -0.612066
 C        -1.531430         1.479539        -0.229959
 O        -2.672555         1.124798         1.859473
 C        -1.897572        -0.038989         1.505357
 H        -0.151376        -0.845836        -0.269804
 H        -0.396417         1.304585         2.810257
 H         0.306586         2.434964         1.790315
 H        -3.083292         3.697574         0.465065
 H        -1.824581         4.388959         1.288932
 H        -1.837307         3.246223        -1.581304
 H        -0.321399         3.317644        -0.499040
 H        -2.172091         0.895245        -0.835602
 H        -1.764075        -0.719179         2.421939
 H        -2.475151        -0.687235         0.783897
