19
Iteration:  3595
 O         0.256251        -0.390283         0.314087
 C        -0.613472         0.561985         0.783454
 C        -0.488098         1.834493         1.714362
 C        -1.904359         2.063504         1.177585
 C        -2.194046         3.406852         0.552020
 C        -1.338567         2.964817        -0.652598
 C        -1.504956         1.532702        -0.167108
 O        -2.599510         1.121303         1.978549
 C        -1.887563        -0.066175         1.563506
 H         0.016028        -1.193187         0.894598
 H        -0.268017         1.405781         2.711049
 H         0.340412         2.458740         1.262302
 H        -3.230847         3.544404         0.283951
 H        -1.971912         4.481152         1.138406
 H        -1.828061         3.433044        -1.493812
 H        -0.189240         3.195174        -0.485043
 H        -2.173821         0.892677        -0.627737
 H        -1.653848        -0.639232         2.516894
 H        -2.387534        -0.582290         0.820520
