19
Iteration:   801charge 0 multiplicity 1
 O         0.266754        -0.373350         0.206032
 C        -0.681861         0.535615         0.768256
 C        -0.402300         1.758393         1.807178
 C        -1.810765         2.098917         1.234817
 C        -2.246630         3.409494         0.614186
 C        -1.354583         2.956416        -0.685682
 C        -1.523171         1.477777        -0.147397
 O        -2.682773         1.230779         1.904024
 C        -1.846471        -0.084594         1.555755
 H         0.900034        -0.725453         0.883036
 H        -0.497023         1.563830         2.934784
 H         0.345002         2.467214         1.582773
 H        -3.374063         3.427276         0.511797
 H        -1.855974         4.239500         1.177519
 H        -1.798407         3.020051        -1.616850
 H        -0.260721         3.296214        -0.531308
 H        -2.353102         0.808518        -0.695990
 H        -1.575417        -0.524809         2.450822
 H        -2.500133        -0.840970         1.126810
