19
Iteration:  3607
 O         0.310688        -0.358716         0.323765
 C        -0.693051         0.554586         0.787316
 C        -0.413330         1.776121         1.714985
 C        -1.897671         2.096510         1.190813
 C        -2.227489         3.483610         0.568368
 C        -1.276715         2.982100        -0.649729
 C        -1.561322         1.428997        -0.142337
 O        -2.614312         1.104306         1.967252
 C        -1.907859        -0.069820         1.554432
 H         0.088628        -1.222696         0.519169
 H        -0.322246         1.757516         2.815221
 H         0.244178         2.635724         1.372027
 H        -3.238543         3.613097         0.143014
 H        -1.818471         4.361455         1.248755
 H        -1.714529         3.064251        -1.672724
 H        -0.227714         3.463774        -0.778451
 H        -2.368613         1.033032        -0.709501
 H        -1.496921        -0.675464         2.424581
 H        -2.569157        -0.716677         1.057617
