19
Iteration:  1249
 O         0.214161        -0.385952         0.310740
 C        -0.708778         0.593209         0.748049
 C        -0.433846         1.864620         1.622247
 C        -1.912554         2.056985         1.168854
 C        -2.154032         3.451944         0.558812
 C        -1.220085         2.985068        -0.567641
 C        -1.583693         1.463674        -0.134157
 O        -2.668405         1.095074         2.005323
 C        -1.811924        -0.150406         1.521117
 H         0.528750        -0.878938         1.171678
 H        -0.321213         1.715477         2.770063
 H         0.299432         2.565667         1.331724
 H        -3.237558         3.597491         0.150823
 H        -1.973151         4.391870         1.174151
 H        -1.672798         3.266164        -1.507140
 H        -0.176651         3.209022        -0.368208
 H        -2.371497         1.138832        -0.790820
 H        -1.577570        -0.510838         2.489630
 H        -2.347788        -0.756653         0.870149
