19
Iteration:   560
 O         0.277208        -0.357070         0.281563
 C        -0.710741         0.550815         0.750437
 C        -0.456882         1.805601         1.577652
 C        -1.941987         2.085180         1.208114
 C        -2.211885         3.384124         0.608425
 C        -1.199505         2.945488        -0.606436
 C        -1.520703         1.454064        -0.193565
 O        -2.673156         1.103979         2.059245
 C        -1.876495        -0.029022         1.595623
 H         0.667215        -0.925921         1.044867
 H        -0.264500         1.694772         2.668098
 H         0.160534         2.697334         1.197386
 H        -3.213363         3.562458         0.176737
 H        -1.966146         4.298451         1.125055
 H        -1.529542         3.208616        -1.605541
 H        -0.141687         3.321990        -0.416579
 H        -2.354370         1.070141        -0.817886
 H        -1.613070        -0.507072         2.469258
 H        -2.408879        -0.462140         0.784130
