19
Iteration:   844
 O         0.266185        -0.355467         0.279059
 C        -0.655253         0.598375         0.721452
 C        -0.416911         1.855483         1.605409
 C        -1.924500         2.057574         1.216460
 C        -2.198549         3.424795         0.659811
 C        -1.271449         2.905762        -0.593882
 C        -1.535255         1.434789        -0.141029
 O        -2.695560         1.153960         1.958843
 C        -1.868248        -0.089877         1.558269
 H         0.549343        -0.845669         1.004046
 H        -0.199542         1.746191         2.722671
 H         0.306696         2.446965         1.153498
 H        -3.273777         3.515213         0.301613
 H        -1.788972         4.293232         1.145437
 H        -1.560478         3.194365        -1.552337
 H        -0.264915         3.302773        -0.204747
 H        -2.508559         1.066862        -0.654045
 H        -1.527859        -0.681870         2.443253
 H        -2.437490        -0.786857         0.871981
