19
Iteration:  4189charge 0 multiplicity 1
 O         0.295818        -0.284811         0.314289
 C        -0.731100         0.560114         0.768629
 C        -0.448640         1.842223         1.641927
 C        -1.942836         2.016964         1.164660
 C        -2.143633         3.466648         0.565921
 C        -1.288891         2.917946        -0.619403
 C        -1.559278         1.393039        -0.188043
 O        -2.602320         1.099624         1.971852
 C        -1.866167         0.001966         1.661362
 H         0.018820        -1.274844         0.586753
 H        -0.453884         1.686533         2.754714
 H         0.186540         2.583579         1.157076
 H        -3.292732         3.580152         0.409527
 H        -1.695072         4.310688         1.146294
 H        -1.680512         3.201108        -1.597231
 H        -0.164251         3.166189        -0.631023
 H        -2.358222         0.819650        -0.673068
 H        -1.512956        -0.516931         2.578236
 H        -2.388387        -0.706951         1.108971
