19
Iteration:  4290
 O         0.168877        -0.419320         0.402140
 C        -0.659919         0.510076         0.749560
 C        -0.399107         1.848704         1.664486
 C        -1.912598         2.089662         1.209463
 C        -2.125142         3.516842         0.512529
 C        -1.358499         2.960181        -0.726078
 C        -1.610316         1.444286        -0.140967
 O        -2.665390         1.081977         2.030871
 C        -1.784662        -0.083732         1.610369
 H         1.105023         0.004324         0.330498
 H        -0.152809         1.720252         2.795289
 H         0.302761         2.564253         1.142039
 H        -3.309904         3.573010         0.089821
 H        -1.841143         4.374279         1.128441
 H        -1.779825         3.223867        -1.740538
 H        -0.254175         3.313915        -0.703277
 H        -2.306172         0.872861        -0.729278
 H        -1.339043        -0.574920         2.506528
 H        -2.301964        -0.845560         1.067991
