19
Iteration:  2028charge 0 multiplicity 1
 O         0.249967        -0.429781         0.380469
 C        -0.675520         0.572629         0.793713
 C        -0.434730         1.764792         1.736979
 C        -1.897477         2.101184         1.244650
 C        -2.152925         3.472143         0.622490
 C        -1.242075         2.985943        -0.606757
 C        -1.479590         1.470580        -0.153723
 O        -2.783467         1.094475         1.892440
 C        -1.861913        -0.061744         1.472862
 H         0.677555        -0.098372        -0.365881
 H        -0.184157         1.608661         2.815175
 H         0.370163         2.275934         1.344342
 H        -3.192152         3.430983         0.373098
 H        -1.962674         4.384410         1.168426
 H        -1.843305         3.176481        -1.551621
 H        -0.278160         3.393318        -0.580407
 H        -2.333807         1.046867        -0.735549
 H        -1.413299        -0.549848         2.424729
 H        -2.393567        -0.706929         0.785703
