19
Iteration:  3272
 O         0.282386        -0.429012         0.385752
 C        -0.706091         0.546907         0.714231
 C        -0.392397         1.768714         1.669198
 C        -1.909394         2.052935         1.208369
 C        -2.210729         3.461016         0.641788
 C        -1.318504         3.015178        -0.624178
 C        -1.497611         1.405621        -0.218500
 O        -2.714759         1.182807         1.909844
 C        -1.890317        -0.067621         1.575055
 H         1.197109        -0.315167         0.943901
 H        -0.238559         1.521749         2.764724
 H         0.302522         2.462243         1.198948
 H        -3.275104         3.595199         0.285171
 H        -1.647502         4.207386         1.201792
 H        -1.688254         3.520486        -1.487489
 H        -0.231174         3.232427        -0.609302
 H        -2.412887         0.884749        -0.669909
 H        -1.518696        -0.372534         2.493960
 H        -2.491504        -0.726360         0.915009
