19
Iteration:  2174charge 0 multiplicity 1
 O         0.316242        -0.412046         0.458156
 C        -0.732628         0.568399         0.685096
 C        -0.405758         1.740822         1.669794
 C        -1.866426         2.081318         1.172182
 C        -2.184353         3.417799         0.713571
 C        -1.259879         2.946498        -0.531250
 C        -1.542392         1.474798        -0.224319
 O        -2.749281         1.138567         1.874083
 C        -1.917926        -0.003480         1.472189
 H         0.757445        -0.015368        -0.405001
 H        -0.147920         1.592242         2.705942
 H         0.498808         2.384611         1.354097
 H        -3.239517         3.431621         0.382767
 H        -1.687981         4.270737         1.273054
 H        -1.632618         3.260628        -1.481981
 H        -0.211127         3.274897        -0.237931
 H        -2.416920         1.043334        -0.652706
 H        -1.539898        -0.537919         2.552507
 H        -2.560598        -0.778861         1.068090
