19
Iteration:  2937
 O         0.374410        -0.231131         0.310221
 C        -0.744932         0.527102         0.814749
 C        -0.439711         1.695067         1.664416
 C        -1.927307         2.063597         1.230520
 C        -2.103648         3.522655         0.578215
 C        -1.154378         2.971525        -0.541539
 C        -1.596261         1.486481        -0.203583
 O        -2.798557         1.090551         1.897364
 C        -1.891525        -0.123388         1.613008
 H         0.196159        -1.080206         0.117351
 H        -0.252069         1.459804         2.690512
 H         0.220024         2.377255         1.261477
 H        -3.110248         3.564911         0.162066
 H        -1.944237         4.472856         1.291060
 H        -1.384350         3.189685        -1.640450
 H        -0.238141         3.368458        -0.517669
 H        -2.381308         1.053096        -0.757446
 H        -1.593171        -0.745855         2.521776
 H        -2.448997        -0.853242         1.043223
