19
Iteration:  4011
 O         0.286409        -0.411017         0.516030
 C        -0.729649         0.560162         0.699305
 C        -0.392160         1.764069         1.568341
 C        -1.893018         2.113875         1.217331
 C        -2.239466         3.453476         0.626120
 C        -1.311059         2.969983        -0.696753
 C        -1.470454         1.479335        -0.221942
 O        -2.654165         1.098792         2.023831
 C        -1.893441        -0.032506         1.536346
 H         0.495535        -0.623323        -0.493736
 H        -0.253839         1.431284         2.651331
 H         0.357457         2.575699         1.327769
 H        -3.310143         3.591657         0.468228
 H        -1.857068         4.326814         1.331547
 H        -1.882578         3.327033        -1.629426
 H        -0.314196         3.287368        -0.473916
 H        -2.277519         0.873732        -0.761671
 H        -1.381902        -0.477603         2.353144
 H        -2.555384        -0.751707         1.212910
