19
Iteration:   403charge 0 multiplicity 1
 O         0.207825        -0.362023         0.218916
 C        -0.637731         0.510229         0.783096
 C        -0.452709         1.808058         1.720306
 C        -1.929647         2.110131         1.256988
 C        -2.191217         3.445277         0.521655
 C        -1.337325         2.987089        -0.655742
 C        -1.408971         1.457399        -0.118479
 O        -2.662914         1.168653         1.999790
 C        -1.836742        -0.100342         1.571479
 H         0.635969        -0.965488         0.845299
 H        -0.492003         1.493647         2.845822
 H         0.244083         2.590218         1.525762
 H        -3.247236         3.555046         0.299349
 H        -1.842226         4.339578         1.081356
 H        -1.867253         2.954846        -1.677044
 H        -0.277355         3.272134        -0.629650
 H        -2.174936         0.886530        -0.848334
 H        -1.675622        -0.635721         2.512227
 H        -2.504315        -0.737419         0.951965
