19
Iteration:   244
 O         0.244448        -0.365271         0.314280
 C        -0.694769         0.599159         0.766993
 C        -0.368790         1.794116         1.690404
 C        -1.934412         2.072671         1.191417
 C        -2.162366         3.452572         0.577959
 C        -1.349901         2.909082        -0.585788
 C        -1.525228         1.459233        -0.183448
 O        -2.678855         1.135166         1.952925
 C        -1.858920        -0.065537         1.561513
 H         0.529160        -0.901879         0.997349
 H        -0.329087         1.629983         2.755019
 H         0.475223         2.559594         1.235423
 H        -3.169776         3.728493         0.260452
 H        -1.635826         4.262078         1.107715
 H        -1.710209         3.220395        -1.586516
 H        -0.301012         3.276741        -0.557120
 H        -2.243842         0.910846        -0.819299
 H        -1.429545        -0.636141         2.394011
 H        -2.522139        -0.754818         1.067850
