19
Iteration:  4351
 O         0.293570        -0.282102         0.251603
 C        -0.684135         0.518438         0.758721
 C        -0.366717         1.793322         1.665290
 C        -1.843570         2.099937         1.213956
 C        -2.243120         3.441724         0.522323
 C        -1.359004         2.850170        -0.722609
 C        -1.511036         1.433353        -0.131405
 O        -2.610419         1.184613         2.011671
 C        -1.940511        -0.049159         1.697960
 H         0.441795        -1.007730         1.013916
 H        -0.420468         1.521854         2.727722
 H         0.367008         2.494504         1.216435
 H        -3.254725         3.494157         0.356070
 H        -1.896671         4.350083         1.108926
 H        -1.846050         2.998010        -1.651231
 H        -0.339138         3.328521        -0.673218
 H        -2.221684         0.925303        -0.879730
 H        -1.636320        -0.562015         2.672422
 H        -2.756872        -0.761505         1.202495
