19
Iteration:  1772charge 0 multiplicity 1
 O         0.322708        -0.315411         0.412555
 C        -0.746388         0.537007         0.751045
 C        -0.472642         1.761932         1.664524
 C        -1.921367         2.077876         1.205436
 C        -2.131958         3.488185         0.638573
 C        -1.203547         3.003813        -0.562540
 C        -1.508373         1.492995        -0.191053
 O        -2.701702         1.052776         1.977062
 C        -1.930089        -0.097737         1.431547
 H         0.050731        -1.061647        -0.032735
 H        -0.351269         1.804768         2.819804
 H         0.343973         2.457655         1.282349
 H        -3.204569         3.725509         0.265907
 H        -1.656678         4.238346         1.259940
 H        -1.644842         3.301828        -1.518376
 H        -0.095868         3.212622        -0.423098
 H        -2.397058         1.152285        -0.833024
 H        -1.495771        -0.671891         2.218078
 H        -2.527230        -0.857489         0.844341
