19
Iteration:  4111charge 0 multiplicity 1
 O         0.221284        -0.431845         0.317324
 C        -0.646660         0.584908         0.773711
 C        -0.407789         1.852583         1.569198
 C        -1.928008         1.998513         1.227832
 C        -2.237941         3.449523         0.541057
 C        -1.317929         2.978592        -0.627653
 C        -1.499434         1.467622        -0.152891
 O        -2.629052         1.111025         2.062845
 C        -1.915773        -0.031158         1.587700
 H         0.981478        -0.665548         0.929884
 H        -0.102964         1.783482         2.609644
 H         0.437925         2.491313         1.196766
 H        -3.252627         3.682659         0.096045
 H        -1.980592         4.438275         1.122691
 H        -1.628502         3.113659        -1.744707
 H        -0.294269         3.372570        -0.549886
 H        -2.164462         0.774466        -0.768787
 H        -1.675753        -0.558785         2.488238
 H        -2.375338        -0.641612         0.874624
