19
Iteration:   940charge 0 multiplicity 1
 O         0.272684        -0.373551         0.201464
 C        -0.707826         0.582015         0.777004
 C        -0.397380         1.760619         1.677807
 C        -1.940212         2.045113         1.206691
 C        -2.176681         3.459365         0.548738
 C        -1.282460         3.047410        -0.607012
 C        -1.494287         1.460700        -0.187116
 O        -2.669817         1.093328         1.996023
 C        -1.935460        -0.056327         1.663530
 H         0.791213        -0.620973         0.965807
 H        -0.126227         1.519330         2.755328
 H         0.323627         2.349103         1.222693
 H        -3.264788         3.430347         0.188774
 H        -2.024868         4.328950         1.199801
 H        -1.690497         3.296548        -1.569592
 H        -0.219198         3.206517        -0.479519
 H        -2.182308         1.058648        -0.817841
 H        -1.487161        -0.581609         2.574696
 H        -2.572808        -0.820700         1.199392
