19
Iteration:  2436charge 0 multiplicity 1
 O         0.386493        -0.367600         0.458767
 C        -0.735462         0.503625         0.727906
 C        -0.422424         1.749590         1.706071
 C        -1.826113         2.055117         1.213121
 C        -2.151588         3.465238         0.719436
 C        -1.322196         3.059882        -0.561327
 C        -1.496912         1.517757        -0.268281
 O        -2.679542         1.136368         1.808039
 C        -1.991056        -0.111868         1.467218
 H         0.140193        -1.255163         0.626476
 H        -0.302382         1.643224         2.862707
 H         0.165344         2.448721         1.255742
 H        -3.196664         3.471998         0.453711
 H        -1.744555         4.321242         1.321071
 H        -2.000036         3.381079        -1.469074
 H        -0.276963         3.406040        -0.598693
 H        -2.302317         1.015238        -0.711743
 H        -1.693030        -0.680916         2.391753
 H        -2.758409        -0.653281         0.906887
