19
Iteration:  1628
 O         0.256244        -0.403566         0.242604
 C        -0.689905         0.563358         0.763064
 C        -0.440742         1.784584         1.674142
 C        -1.845070         2.080544         1.199446
 C        -2.184997         3.498726         0.603497
 C        -1.212041         3.039684        -0.540415
 C        -1.541262         1.478879        -0.095914
 O        -2.715407         1.077909         1.907227
 C        -1.934355        -0.121094         1.560291
 H         0.951637        -0.505698         0.911211
 H        -0.196751         1.630504         2.785260
 H         0.337822         2.418355         1.393980
 H        -3.256447         3.560922         0.201384
 H        -1.962902         4.410055         1.241985
 H        -1.769146         3.257948        -1.487693
 H        -0.145274         3.288961        -0.557485
 H        -2.311381         0.968605        -0.748042
 H        -1.570103        -0.723413         2.336484
 H        -2.569866        -0.726140         0.912366
