19
Iteration:    48
 O         0.235564        -0.366125         0.251770
 C        -0.701159         0.600207         0.766563
 C        -0.408603         1.753836         1.794727
 C        -1.870075         2.050106         1.146287
 C        -2.240811         3.416453         0.523408
 C        -1.273701         2.902230        -0.584385
 C        -1.513775         1.447083        -0.211084
 O        -2.656426         1.182372         1.980159
 C        -1.849724         0.018413         1.609755
 H         0.494758        -0.832246         0.987541
 H        -0.548609         1.394417         2.780023
 H         0.517451         2.448015         1.504835
 H        -3.245685         3.594460         0.135577
 H        -1.868709         4.305217         1.065429
 H        -1.688140         3.042073        -1.673976
 H        -0.251146         3.277388        -0.460843
 H        -2.470855         0.929529        -0.685812
 H        -1.471418        -0.475937         2.542235
 H        -2.455106        -0.730528         0.907358
