19
Iteration:  2829charge 0 multiplicity 1
 O         0.343337        -0.355435         0.396847
 C        -0.716098         0.570817         0.769180
 C        -0.515709         1.789013         1.681923
 C        -1.917717         2.065075         1.282157
 C        -2.118582         3.485206         0.622123
 C        -1.235410         3.016010        -0.607172
 C        -1.434334         1.463587        -0.232646
 O        -2.717169         1.083092         1.935961
 C        -1.962209        -0.126361         1.523429
 H         0.179484        -0.532346        -0.493074
 H        -0.460320         1.660401         2.760993
 H         0.247850         2.468767         1.321680
 H        -3.121080         3.851009         0.350419
 H        -1.667919         4.117376         1.286014
 H        -1.802895         3.227479        -1.551634
 H        -0.217927         3.324563        -0.609850
 H        -2.179608         0.822158        -0.839199
 H        -1.630392        -0.631683         2.465975
 H        -2.578171        -0.843053         0.884586
