19
Iteration:   314charge 0 multiplicity 1
 O         0.192117        -0.423317         0.239015
 C        -0.679975         0.526672         0.814005
 C        -0.432109         1.870703         1.793055
 C        -1.838225         2.087790         1.233096
 C        -2.133231         3.422245         0.581445
 C        -1.384945         2.951361        -0.664227
 C        -1.499442         1.476501        -0.107957
 O        -2.669355         1.144353         1.914775
 C        -1.832849        -0.049231         1.527107
 H         0.920870        -0.530903         0.839353
 H        -0.456103         1.860447         3.015391
 H         0.298550         2.374489         1.281582
 H        -3.195841         3.392866         0.262344
 H        -1.868995         4.333163         1.104872
 H        -1.796362         3.140173        -1.684709
 H        -0.234210         3.138299        -0.794975
 H        -2.443753         0.958770        -0.638930
 H        -1.624168        -0.543592         2.435958
 H        -2.372657        -0.824354         0.957798
