19
Iteration:  4843
 O         0.294800        -0.361399         0.249936
 C        -0.673544         0.564106         0.737630
 C        -0.293578         1.755775         1.624669
 C        -1.928528         2.114904         1.218933
 C        -2.164288         3.455119         0.618644
 C        -1.337640         2.837214        -0.708394
 C        -1.570674         1.430604        -0.132554
 O        -2.741552         1.175000         1.927529
 C        -1.871486         0.005933         1.742979
 H         0.800526        -0.779948         1.075547
 H        -0.371477         1.795868         2.735796
 H         0.382090         2.575770         1.220324
 H        -3.213147         3.562758         0.337283
 H        -1.743889         4.243181         1.188594
 H        -2.032960         2.957282        -1.660148
 H        -0.322997         3.401370        -0.904405
 H        -2.419652         0.852645        -0.778207
 H        -1.443902        -0.370733         2.656966
 H        -2.426887        -0.949783         1.420286
