19
Iteration:  1631
 O         0.274058        -0.409479         0.245088
 C        -0.711779         0.548823         0.751435
 C        -0.441155         1.774916         1.686613
 C        -1.874373         2.073999         1.193617
 C        -2.171665         3.503378         0.616350
 C        -1.223633         3.037819        -0.541678
 C        -1.518493         1.495173        -0.110036
 O        -2.704271         1.076814         1.915623
 C        -1.949884        -0.093209         1.568219
 H         0.970415        -0.384983         0.878297
 H        -0.215170         1.619293         2.771840
 H         0.358958         2.401310         1.295000
 H        -3.269229         3.487882         0.145718
 H        -1.950336         4.349698         1.263105
 H        -1.738168         3.258263        -1.532787
 H        -0.146891         3.297208        -0.554267
 H        -2.326380         1.015174        -0.782089
 H        -1.571455        -0.780184         2.350456
 H        -2.555951        -0.765556         0.976597
