19
Iteration:   968
 O         0.328025        -0.329504         0.278475
 C        -0.771312         0.520487         0.727028
 C        -0.494709         1.713535         1.600575
 C        -1.906663         2.076266         1.203379
 C        -2.223935         3.435089         0.587104
 C        -1.227608         2.964179        -0.560273
 C        -1.584882         1.453925        -0.149643
 O        -2.590141         1.161955         1.967514
 C        -1.878258        -0.046352         1.594992
 H         0.699543        -0.568226         1.078386
 H        -0.300327         1.514462         2.633412
 H         0.363874         2.274411         1.150738
 H        -3.260433         3.451866         0.391913
 H        -1.944951         4.358188         1.119229
 H        -1.477603         3.283954        -1.656479
 H        -0.258968         3.262636        -0.211080
 H        -2.560871         1.238668        -0.790904
 H        -1.426051        -0.502851         2.463410
 H        -2.606531        -0.769506         1.202343
