19
Iteration:  1588
 O         0.299468        -0.338838         0.271784
 C        -0.638566         0.543657         0.729161
 C        -0.424294         1.746079         1.720693
 C        -1.894940         2.097661         1.257037
 C        -2.178659         3.454141         0.643367
 C        -1.238240         3.021285        -0.598676
 C        -1.479092         1.452195        -0.181614
 O        -2.704486         1.124760         1.940824
 C        -1.928473        -0.073998         1.555616
 H        -0.090389        -1.271654         0.242261
 H        -0.525996         1.492318         2.802733
 H         0.266965         2.552673         1.517051
 H        -3.243759         3.411149         0.206991
 H        -1.903211         4.323556         1.189885
 H        -1.865116         3.187920        -1.539219
 H        -0.290327         3.544800        -0.788915
 H        -2.302714         1.008892        -0.841105
 H        -1.653023        -0.561437         2.580849
 H        -2.532036        -0.882348         1.081516
