19
Iteration:  1468charge 0 multiplicity 1
 O         0.285628        -0.345113         0.292585
 C        -0.700848         0.583114         0.708842
 C        -0.298020         1.746566         1.558008
 C        -1.883666         2.053895         1.246325
 C        -2.219670         3.480917         0.638485
 C        -1.231029         2.923916        -0.522761
 C        -1.585390         1.454698        -0.196814
 O        -2.737847         1.143855         1.923627
 C        -1.949412        -0.062801         1.635450
 H         0.912075        -0.601804         0.965687
 H        -0.251543         1.648425         2.724472
 H         0.467553         2.408339         1.121416
 H        -3.261715         3.529503         0.195417
 H        -1.914092         4.342010         1.097376
 H        -1.529638         3.283415        -1.595555
 H        -0.217689         3.278280        -0.393997
 H        -2.467242         1.062707        -0.777639
 H        -1.653766        -0.679297         2.604658
 H        -2.452267        -0.945716         1.144739
