19
Iteration:   571
 O         0.265342        -0.370465         0.293745
 C        -0.699350         0.574005         0.772530
 C        -0.473142         1.889277         1.601772
 C        -1.927746         2.058156         1.227953
 C        -2.225234         3.457997         0.579837
 C        -1.196005         2.950929        -0.619244
 C        -1.536761         1.474940        -0.114833
 O        -2.617171         1.075464         2.003669
 C        -1.937508        -0.088013         1.527788
 H         0.646419        -0.867242         1.136561
 H        -0.132891         1.993562         2.643419
 H         0.308839         2.323958         0.933661
 H        -3.278225         3.581919         0.262114
 H        -1.890452         4.256837         1.217653
 H        -1.539239         3.231289        -1.594668
 H        -0.084266         3.193752        -0.507881
 H        -2.316129         0.893730        -0.639004
 H        -1.525390        -0.628449         2.296513
 H        -2.628705        -0.797811         1.142337
