19
Iteration:  3012
 O         0.242035        -0.449701         0.470072
 C        -0.673115         0.524318         0.792600
 C        -0.380188         1.792090         1.698433
 C        -1.823965         2.053041         1.228044
 C        -2.268297         3.456423         0.624173
 C        -1.309147         3.056373        -0.622709
 C        -1.450589         1.558218        -0.182979
 O        -2.694889         1.109741         1.851695
 C        -1.924685        -0.115158         1.543091
 H         0.568000        -0.404508        -0.534600
 H        -0.167479         1.555454         2.725821
 H         0.310786         2.413887         1.209639
 H        -3.303262         3.349350         0.388603
 H        -1.866980         4.459287         1.041942
 H        -1.730303         3.382874        -1.595825
 H        -0.280308         3.472556        -0.618601
 H        -2.224090         1.083721        -0.661081
 H        -1.694792        -0.776828         2.441250
 H        -2.423210        -0.736112         0.857582
