19
Iteration:   853
 O         0.321811        -0.336973         0.297789
 C        -0.707306         0.553745         0.747536
 C        -0.435116         1.835204         1.544755
 C        -1.902157         2.065955         1.155963
 C        -2.166662         3.397463         0.646104
 C        -1.279896         2.930650        -0.485918
 C        -1.606192         1.446632        -0.177744
 O        -2.642271         1.119818         1.944502
 C        -1.879340        -0.005798         1.577112
 H         0.522319        -0.892003         1.003102
 H        -0.306334         1.569815         2.648865
 H         0.243618         2.537239         1.273163
 H        -3.251515         3.562950         0.324022
 H        -1.926121         4.247137         1.255697
 H        -1.590396         3.190559        -1.491871
 H        -0.157568         3.177298        -0.507473
 H        -2.421471         0.931133        -0.590423
 H        -1.708928        -0.641648         2.564896
 H        -2.568887        -0.623162         0.904314
