19
Iteration:  1864charge 0 multiplicity 1
 O         0.281081        -0.404212         0.445024
 C        -0.715704         0.616460         0.663436
 C        -0.520458         1.732064         1.638969
 C        -1.953121         2.067520         1.248692
 C        -2.187574         3.497484         0.591199
 C        -1.178258         3.001758        -0.507021
 C        -1.469689         1.473510        -0.286905
 O        -2.656838         1.083230         2.028449
 C        -1.901134        -0.091215         1.513310
 H         0.230451        -0.511888        -0.591731
 H        -0.434525         1.498885         2.712029
 H         0.038036         2.666313         1.575630
 H        -3.209600         3.627390         0.132817
 H        -1.706511         4.365407         1.216696
 H        -1.570098         3.375038        -1.517277
 H        -0.153375         3.191899        -0.360196
 H        -2.126864         0.867478        -0.930534
 H        -1.459663        -0.685427         2.368425
 H        -2.499918        -0.566299         0.850083
