19
Iteration:  1663charge 0 multiplicity 1
 O         0.308554        -0.370029         0.430522
 C        -0.730874         0.552999         0.634727
 C        -0.410444         1.718634         1.664647
 C        -1.916467         2.071645         1.134209
 C        -2.106297         3.454292         0.702102
 C        -1.276338         3.033210        -0.492724
 C        -1.556624         1.430840        -0.217467
 O        -2.695736         1.158255         1.927287
 C        -1.950402        -0.088738         1.557942
 H         1.006068         0.084308        -0.138387
 H        -0.501861         1.229769         2.678220
 H         0.343164         2.325559         1.283279
 H        -3.244276         3.409677         0.255462
 H        -1.864883         4.251425         1.452287
 H        -1.537485         3.427512        -1.541377
 H        -0.180716         3.264574        -0.499051
 H        -2.391857         0.931595        -0.894339
 H        -1.514446        -0.684667         2.325020
 H        -2.568139        -0.658492         0.919968
