19
Iteration:   380charge 0 multiplicity 1
 O         0.330515        -0.315441         0.317741
 C        -0.713483         0.539061         0.717976
 C        -0.381406         1.788749         1.598082
 C        -1.910951         2.090777         1.178521
 C        -2.186037         3.484574         0.604127
 C        -1.261937         2.924878        -0.627298
 C        -1.579863         1.493081        -0.171377
 O        -2.653372         1.082507         1.994747
 C        -1.940072        -0.065342         1.622772
 H         0.422549        -0.943447         1.065327
 H        -0.292702         1.701179         2.781921
 H         0.320867         2.363335         1.127351
 H        -3.240783         3.506710         0.282246
 H        -1.945367         4.355184         1.220090
 H        -1.645775         3.200528        -1.635459
 H        -0.172244         3.189144        -0.374558
 H        -2.497010         0.956886        -0.742599
 H        -1.608049        -0.564465         2.515263
 H        -2.503541        -0.835713         1.043404
