19
Iteration:  3610
 O         0.319729        -0.342964         0.330013
 C        -0.716365         0.558072         0.772990
 C        -0.400212         1.781985         1.701775
 C        -1.898035         2.105623         1.211500
 C        -2.203882         3.488463         0.575459
 C        -1.275902         2.980985        -0.645387
 C        -1.545637         1.419121        -0.153734
 O        -2.640945         1.104833         1.973159
 C        -1.890095        -0.072340         1.558512
 H         0.124117        -1.363620         0.449196
 H        -0.398476         1.781487         2.791899
 H         0.333257         2.553692         1.329600
 H        -3.305227         3.645014         0.221574
 H        -1.905477         4.335087         1.167073
 H        -1.734159         2.937762        -1.684429
 H        -0.258470         3.414607        -0.702573
 H        -2.424377         1.068002        -0.781697
 H        -1.511060        -0.633088         2.482639
 H        -2.628018        -0.800176         0.986066
