19
Iteration:  3341
 O         0.268839        -0.364814         0.438258
 C        -0.652027         0.545082         0.766572
 C        -0.474386         1.774753         1.665688
 C        -1.926800         2.154124         1.216435
 C        -2.198312         3.418240         0.614521
 C        -1.221679         2.927057        -0.551582
 C        -1.508831         1.423664        -0.226144
 O        -2.654565         1.144701         1.934954
 C        -1.905307        -0.073955         1.528242
 H         0.230448        -0.412819        -0.582128
 H        -0.369708         1.469847         2.692795
 H         0.184845         2.595307         1.267993
 H        -3.096893         3.520931         0.074378
 H        -1.876674         4.245950         1.272855
 H        -1.629430         3.250018        -1.618842
 H        -0.268893         3.344985        -0.523252
 H        -2.293065         0.944767        -0.774600
 H        -1.427236        -0.555639         2.467014
 H        -2.647137        -0.643043         0.959361
