19
Iteration:  2601
 O         0.231449        -0.444442         0.432605
 C        -0.678087         0.571445         0.750885
 C        -0.368748         1.757561         1.725553
 C        -1.835315         2.090293         1.192139
 C        -2.179959         3.383732         0.720349
 C        -1.373802         2.995047        -0.589445
 C        -1.424851         1.463662        -0.223797
 O        -2.735233         1.145780         1.803794
 C        -1.925038        -0.016730         1.510034
 H         1.117870         0.019315         0.144956
 H        -0.257921         1.540426         2.745498
 H         0.407838         2.528877         1.363236
 H        -3.338531         3.505869         0.499600
 H        -1.915535         4.219119         1.318847
 H        -1.782693         3.290205        -1.558805
 H        -0.323397         3.241350        -0.499466
 H        -2.221892         0.948773        -0.703291
 H        -1.653122        -0.555715         2.508499
 H        -2.562355        -0.637277         0.730372
