19
Iteration:  4737charge 0 multiplicity 1
 O         0.208807        -0.351627         0.246387
 C        -0.714077         0.602304         0.802120
 C        -0.415375         1.860519         1.665492
 C        -1.917263         2.109487         1.157584
 C        -2.107050         3.463124         0.561104
 C        -1.345537         2.854544        -0.660808
 C        -1.589167         1.410459        -0.097344
 O        -2.713507         1.118712         1.955921
 C        -1.765219        -0.070183         1.678882
 H         0.729681        -0.817099         1.036492
 H        -0.072135         1.724141         2.691576
 H         0.298766         2.583638         1.193995
 H        -3.167034         3.788033         0.332900
 H        -1.513212         4.350679         0.941316
 H        -1.747068         2.860323        -1.710602
 H        -0.379338         3.201606        -0.738359
 H        -2.305637         0.823453        -0.636431
 H        -1.321061        -0.417934         2.628763
 H        -2.229200        -0.863655         1.096987
