19
Iteration:  4037charge 0 multiplicity 1
 O         0.273918        -0.433695         0.390832
 C        -0.663173         0.545854         0.860414
 C        -0.458701         1.848058         1.617119
 C        -1.907038         2.074610         1.136894
 C        -2.125240         3.478418         0.625290
 C        -1.344960         2.840014        -0.643460
 C        -1.561432         1.510823        -0.148538
 O        -2.638517         1.121181         1.939433
 C        -1.881268        -0.067457         1.571537
 H         0.891912         0.045390        -0.305620
 H        -0.271907         1.876727         2.669598
 H         0.165616         2.661797         1.204272
 H        -3.148485         3.788647         0.385526
 H        -1.704536         4.193953         1.198256
 H        -2.027298         3.178062        -1.435369
 H        -0.320343         3.260527        -0.645737
 H        -2.315610         0.995921        -0.597558
 H        -1.558317        -0.805291         2.425431
 H        -2.591033        -0.699842         0.952642
