19
Iteration:  3968
 O         0.288260        -0.341448         0.326326
 C        -0.640103         0.589950         0.761474
 C        -0.375590         1.786087         1.674278
 C        -1.815106         2.063083         1.193479
 C        -2.288751         3.399604         0.624338
 C        -1.293406         2.967199        -0.618087
 C        -1.457256         1.456564        -0.163319
 O        -2.701581         1.132175         1.918585
 C        -1.961497        -0.043718         1.638058
 H        -0.217832        -1.223332         0.101191
 H        -0.027935         1.864639         2.745334
 H         0.400882         2.366149         1.101088
 H        -3.323843         3.425733         0.354427
 H        -2.048833         4.390048         1.150055
 H        -1.501178         3.119030        -1.808591
 H        -0.301922         3.330582        -0.367529
 H        -2.304744         1.040970        -0.734842
 H        -1.548763        -0.565498         2.536896
 H        -2.544447        -0.753561         1.044339
