19
Iteration:  1813charge 0 multiplicity 1
 O         0.382014        -0.398777         0.374450
 C        -0.701266         0.539759         0.766993
 C        -0.398761         1.685791         1.770347
 C        -1.840604         2.066637         1.238463
 C        -2.129935         3.471390         0.635459
 C        -1.325714         3.026582        -0.607820
 C        -1.455584         1.536892        -0.111372
 O        -2.808165         1.122672         1.796597
 C        -1.958265        -0.044925         1.534241
 H         0.061667        -0.627958        -0.597651
 H        -0.019620         1.670162         2.906162
 H         0.427070         2.155628         1.312996
 H        -3.210064         3.621205         0.515046
 H        -1.913049         4.425205         1.178919
 H        -2.011028         2.973574        -1.528165
 H        -0.396338         3.590719        -0.666519
 H        -2.206879         0.977307        -0.671567
 H        -1.572946        -0.592089         2.451773
 H        -2.630963        -0.893108         1.010512
