19
Iteration:   562
 O         0.277201        -0.362411         0.283618
 C        -0.716555         0.563197         0.752451
 C        -0.467518         1.825730         1.563398
 C        -1.936673         2.078594         1.215495
 C        -2.219344         3.389125         0.606609
 C        -1.184013         2.951863        -0.622621
 C        -1.522817         1.458010        -0.176277
 O        -2.662289         1.089139         2.053335
 C        -1.887738        -0.032818         1.575327
 H         0.693255        -0.949233         1.065458
 H        -0.230357         1.765329         2.729945
 H         0.128214         2.575045         1.136285
 H        -3.245555         3.608602         0.200262
 H        -1.955060         4.281707         1.130470
 H        -1.551164         3.209068        -1.547212
 H        -0.123776         3.261495        -0.383263
 H        -2.284384         1.055021        -0.689579
 H        -1.559222        -0.495051         2.566439
 H        -2.511986        -0.479280         0.786182
