19
Iteration:  2135
 O         0.216903        -0.456052         0.376531
 C        -0.685317         0.501044         0.770509
 C        -0.417658         1.805443         1.696825
 C        -1.899161         2.055862         1.222740
 C        -2.153656         3.488280         0.564295
 C        -1.281151         3.083492        -0.629008
 C        -1.442240         1.546228        -0.214089
 O        -2.727655         1.013046         2.022130
 C        -1.911046        -0.093410         1.505434
 H         1.045495        -0.109285         0.341526
 H        -0.447393         1.655692         2.801326
 H         0.271326         2.491476         1.328311
 H        -3.225770         3.705688         0.267600
 H        -1.798103         4.220418         1.236096
 H        -1.551744         3.458004        -1.656902
 H        -0.319820         3.480611        -0.553200
 H        -2.323047         1.196515        -0.838696
 H        -1.476582        -0.624723         2.209507
 H        -2.540725        -0.773443         0.852227
