19
Iteration:  3049charge 0 multiplicity 1
 O         0.209810        -0.426006         0.321711
 C        -0.666319         0.631547         0.732877
 C        -0.491075         1.771741         1.653086
 C        -1.933900         2.105615         1.211263
 C        -2.224110         3.404683         0.588273
 C        -1.194651         2.949945        -0.568566
 C        -1.458929         1.502803        -0.214603
 O        -2.692045         1.127467         1.951397
 C        -1.881063        -0.120082         1.641554
 H         1.147976         0.038955         0.244165
 H        -0.319011         1.440489         2.690652
 H         0.369439         2.473296         1.360891
 H        -3.314257         3.578130         0.234142
 H        -2.010592         4.423058         1.098003
 H        -1.357846         3.308271        -1.622953
 H        -0.196457         3.295778        -0.278556
 H        -2.197471         1.007625        -0.944670
 H        -1.548549        -0.644407         2.558105
 H        -2.679455        -0.836989         1.125489
