19
Iteration:   424charge 0 multiplicity 1
 O         0.224374        -0.385358         0.203815
 C        -0.656868         0.596005         0.822404
 C        -0.357204         1.851926         1.823444
 C        -1.826841         2.112259         1.220455
 C        -2.227973         3.371229         0.610253
 C        -1.290745         2.944841        -0.646964
 C        -1.525901         1.394500        -0.175884
 O        -2.694547         1.135653         1.865477
 C        -1.904799         0.003160         1.595056
 H         0.735321        -0.861488         0.825249
 H        -0.130168         1.641909         2.978670
 H         0.350132         2.468714         1.389895
 H        -3.284905         3.379184         0.348164
 H        -1.964512         4.299388         1.143536
 H        -1.933827         2.977947        -1.546907
 H        -0.205660         3.192384        -0.598704
 H        -2.542147         0.918807        -0.662693
 H        -1.476504        -0.439984         2.432920
 H        -2.557013        -0.597521         0.948976
