19
Iteration:   442
 O         0.264623        -0.341852         0.273981
 C        -0.665496         0.574231         0.764933
 C        -0.378167         1.724288         1.591395
 C        -1.849647         2.081364         1.228647
 C        -2.197304         3.443328         0.593040
 C        -1.325576         2.904030        -0.607140
 C        -1.508346         1.502069        -0.091945
 O        -2.738570         1.162925         1.896889
 C        -1.886498        -0.106945         1.633718
 H         0.607510        -0.695470         1.077756
 H        -0.217066         1.576837         2.688620
 H         0.349597         2.422591         1.222157
 H        -3.270030         3.435329         0.255782
 H        -2.008781         4.421369         1.012863
 H        -1.609551         3.192137        -1.571802
 H        -0.352707         3.414576        -0.377177
 H        -2.231932         0.989796        -0.634354
 H        -1.537480        -0.349860         2.686417
 H        -2.432230        -0.745477         0.908444
