19
Iteration:  1810charge 0 multiplicity 1
 O         0.376303        -0.401855         0.367306
 C        -0.701163         0.553872         0.758842
 C        -0.383330         1.677806         1.787431
 C        -1.840420         2.075968         1.221267
 C        -2.149539         3.459335         0.648724
 C        -1.315287         3.021640        -0.617633
 C        -1.446226         1.528302        -0.112010
 O        -2.824975         1.129109         1.812429
 C        -1.950870        -0.051584         1.519018
 H         0.084696        -0.661621        -0.526022
 H        -0.188826         1.629180         2.879264
 H         0.421122         2.259665         1.331964
 H        -3.174097         3.655190         0.554363
 H        -1.882868         4.402013         1.222246
 H        -1.979676         2.992722        -1.522275
 H        -0.388937         3.541140        -0.794979
 H        -2.225191         0.987282        -0.598158
 H        -1.522499        -0.570803         2.433069
 H        -2.535926        -0.787426         1.040451
