19
Iteration:  1470charge 0 multiplicity 1
 O         0.275411        -0.345299         0.301266
 C        -0.690884         0.598177         0.684772
 C        -0.287658         1.740638         1.579286
 C        -1.877987         2.044128         1.252774
 C        -2.229853         3.466807         0.617953
 C        -1.230369         2.915625        -0.526599
 C        -1.589768         1.467741        -0.189149
 O        -2.742596         1.139769         1.913738
 C        -1.948741        -0.058634         1.653997
 H         0.912145        -0.563232         0.908824
 H        -0.268961         1.575659         2.680023
 H         0.517115         2.450238         1.093475
 H        -3.264180         3.517426         0.256731
 H        -1.838680         4.333117         1.123965
 H        -1.510810         3.300490        -1.558012
 H        -0.273489         3.290031        -0.424030
 H        -2.427093         1.089688        -0.718399
 H        -1.668113        -0.652327         2.559964
 H        -2.460936        -0.878024         1.117681
