19
Iteration:  3699
 O         0.175578        -0.466367         0.366844
 C        -0.650929         0.574180         0.767466
 C        -0.400775         1.800974         1.655918
 C        -1.830095         2.132381         1.263836
 C        -2.223586         3.461260         0.589580
 C        -1.342477         2.942404        -0.648452
 C        -1.542878         1.475867        -0.152697
 O        -2.643111         1.157427         1.932233
 C        -1.834869        -0.091205         1.537948
 H         1.146366        -0.124175         0.378200
 H        -0.356275         1.874562         2.741750
 H         0.189299         2.605025         1.313617
 H        -3.275427         3.137601         0.293829
 H        -2.101908         4.375572         1.046647
 H        -1.541565         3.166132        -1.705308
 H        -0.305811         3.159853        -0.580147
 H        -2.467396         0.877547        -0.416935
 H        -1.430832        -0.654668         2.355866
 H        -2.487261        -0.759256         0.986403
