19
Iteration:  3036charge 0 multiplicity 1
 O         0.253681        -0.468396         0.359724
 C        -0.683198         0.502626         0.709474
 C        -0.427658         1.774161         1.712258
 C        -1.904192         2.032430         1.149180
 C        -2.299972         3.435256         0.609413
 C        -1.204242         2.989296        -0.493272
 C        -1.484529         1.450019        -0.191573
 O        -2.677300         1.173071         1.923839
 C        -1.886396         0.046183         1.558636
 H         0.971436        -0.103513        -0.108290
 H        -0.441165         1.568852         2.784929
 H         0.247678         2.537716         1.435317
 H        -3.323104         3.378863         0.156157
 H        -1.975869         4.374103         1.276029
 H        -1.634576         3.210937        -1.552925
 H        -0.253993         3.358393        -0.421975
 H        -2.245157         1.031972        -0.808115
 H        -1.468873        -0.452146         2.487172
 H        -2.434718        -0.677978         0.929092
