19
Iteration:  1385
 O         0.297823        -0.345447         0.250174
 C        -0.662601         0.491697         0.782085
 C        -0.362402         1.762898         1.692862
 C        -1.833480         2.113264         1.224040
 C        -2.216365         3.474210         0.636460
 C        -1.315678         3.022467        -0.621111
 C        -1.497650         1.420065        -0.215004
 O        -2.708080         1.132971         1.913497
 C        -1.990358        -0.106360         1.648404
 H         0.564910        -0.981499         1.040723
 H        -0.193610         1.802139         2.732406
 H         0.452719         2.347088         1.076874
 H        -3.273367         3.565434         0.334314
 H        -1.926424         4.502708         1.174879
 H        -1.722169         3.268771        -1.627766
 H        -0.267420         3.401126        -0.521633
 H        -2.264126         0.915966        -0.800792
 H        -1.573261        -0.614983         2.489148
 H        -2.706564        -0.678220         1.066728
