19
Iteration:  3378charge 0 multiplicity 1
 O         0.450981        -0.292288         0.373783
 C        -0.722285         0.516242         0.790183
 C        -0.435263         1.729768         1.706628
 C        -1.888313         2.010972         1.204683
 C        -2.078875         3.522612         0.605978
 C        -1.349162         2.969674        -0.636455
 C        -1.578279         1.474080        -0.177866
 O        -2.727176         1.140348         1.867387
 C        -1.958146        -0.065573         1.583520
 H        -0.073662        -1.219641         0.166404
 H        -0.187424         1.397311         2.761367
 H         0.367904         2.356890         1.421574
 H        -3.072906         3.764042         0.288329
 H        -1.965044         4.322428         1.269874
 H        -1.730934         3.065848        -1.604332
 H        -0.224829         3.344690        -0.524530
 H        -2.365043         1.161049        -0.872546
 H        -1.668468        -0.512647         2.521490
 H        -2.546497        -0.868475         1.153897
