19
Iteration:  2162
 O         0.290699        -0.387472         0.477182
 C        -0.727752         0.486239         0.694165
 C        -0.440368         1.756272         1.552458
 C        -1.902060         2.062614         1.172742
 C        -2.197952         3.466554         0.676999
 C        -1.231018         2.973321        -0.458285
 C        -1.548002         1.467369        -0.219048
 O        -2.643023         1.153907         1.906333
 C        -1.938045        -0.082767         1.506648
 H         0.897652        -0.040118        -0.097900
 H        -0.549442         1.499586         2.586841
 H         0.403210         2.481872         1.246575
 H        -3.156893         3.729373         0.276180
 H        -2.083975         4.284721         1.479755
 H        -1.557732         3.312643        -1.437222
 H        -0.109084         3.310486        -0.448667
 H        -2.359217         1.190917        -0.884053
 H        -1.435021        -0.647574         2.509850
 H        -2.607381        -0.679023         0.889898
