19
Iteration:  3114charge 0 multiplicity 1
 O         0.335308        -0.343593         0.373084
 C        -0.695086         0.588506         0.766463
 C        -0.451186         1.722256         1.644607
 C        -1.906292         2.052317         1.207297
 C        -2.081013         3.429499         0.634567
 C        -1.351063         2.957616        -0.668023
 C        -1.474076         1.471628        -0.209979
 O        -2.704560         1.140254         1.905477
 C        -1.983356        -0.056474         1.606161
 H         1.062317        -0.465083         0.894746
 H        -0.314228         1.513685         2.693154
 H         0.430394         2.386456         1.415200
 H        -3.217661         3.634162         0.419152
 H        -1.801810         4.208073         1.446447
 H        -2.035443         3.062961        -1.517791
 H        -0.390388         3.409101        -0.768552
 H        -2.325447         0.962570        -0.720522
 H        -1.702942        -0.639989         2.466558
 H        -2.507855        -0.534806         0.798510
