19
Iteration:  3506charge 0 multiplicity 1
 O         0.256512        -0.355171         0.430217
 C        -0.701287         0.573220         0.769271
 C        -0.459664         1.838559         1.699189
 C        -1.912656         2.084523         1.173750
 C        -2.090559         3.474731         0.623404
 C        -1.275649         2.947926        -0.621659
 C        -1.541122         1.382166        -0.178848
 O        -2.720038         1.074176         1.957921
 C        -1.866851        -0.097691         1.514103
 H         0.593152         0.034011        -0.421010
 H        -0.298097         1.637615         2.789145
 H         0.211442         2.500649         1.221131
 H        -3.148411         3.676182         0.394485
 H        -1.530847         4.369515         1.167658
 H        -1.753645         3.316644        -1.539965
 H        -0.187126         3.218728        -0.722080
 H        -2.331394         0.922459        -0.770189
 H        -1.587981        -0.657747         2.471462
 H        -2.397209        -0.702079         0.819366
