19
Iteration:  3636
 O         0.377248        -0.254569         0.405235
 C        -0.692963         0.568030         0.740684
 C        -0.361792         1.684048         1.623498
 C        -1.903512         2.044187         1.208347
 C        -2.143166         3.419806         0.612759
 C        -1.286691         2.960704        -0.628738
 C        -1.629481         1.396733        -0.174382
 O        -2.695030         1.162855         1.907389
 C        -1.928468        -0.033312         1.644684
 H         0.084134        -0.954144        -0.259273
 H        -0.076757         1.550224         2.678390
 H         0.062770         2.516647         1.157654
 H        -3.119341         3.666324         0.277415
 H        -1.903907         4.301721         1.228539
 H        -1.711668         3.233452        -1.578401
 H        -0.242833         3.173962        -0.501898
 H        -2.509145         0.964515        -0.689293
 H        -1.474263        -0.419212         2.540096
 H        -2.681378        -0.776884         1.187719
