19
Iteration:  2590
 O         0.239234        -0.488128         0.460868
 C        -0.635938         0.540904         0.759994
 C        -0.432627         1.776891         1.650672
 C        -1.843641         2.035189         1.205804
 C        -2.179455         3.486848         0.710256
 C        -1.326101         3.020754        -0.558922
 C        -1.536187         1.523302        -0.188321
 O        -2.716772         1.166508         1.801306
 C        -1.864112        -0.088493         1.492839
 H         1.110271        -0.187561         0.483664
 H        -0.196250         1.634906         2.659693
 H         0.294571         2.542116         1.183353
 H        -3.312178         3.441875         0.381624
 H        -1.901460         4.287939         1.347259
 H        -1.840647         3.131710        -1.492369
 H        -0.360398         3.564666        -0.632283
 H        -2.140945         1.006799        -0.873838
 H        -1.682464        -0.755781         2.442588
 H        -2.532448        -0.801673         0.800261
