19
Iteration:  2929
 O         0.381173        -0.282207         0.295785
 C        -0.711036         0.563873         0.776715
 C        -0.491575         1.758853         1.697764
 C        -1.914374         2.081862         1.213850
 C        -2.119684         3.468954         0.574969
 C        -1.151753         2.987611        -0.571820
 C        -1.598954         1.476118        -0.125833
 O        -2.754570         1.053764         1.875516
 C        -1.930007        -0.093574         1.610845
 H        -0.019276        -1.098526         0.113213
 H        -0.265182         1.461652         2.751017
 H         0.363550         2.318635         1.408255
 H        -3.176891         3.626580         0.292824
 H        -1.932362         4.311449         1.081780
 H        -1.373778         3.364485        -1.620913
 H        -0.112614         3.270811        -0.328785
 H        -2.570595         1.064407        -0.608996
 H        -1.466615        -0.499528         2.470215
 H        -2.477717        -0.817965         0.942521
