19
Iteration:   273
 O         0.340566        -0.348022         0.280788
 C        -0.752322         0.491640         0.791639
 C        -0.438446         1.719577         1.558298
 C        -1.896915         2.085534         1.154979
 C        -2.198059         3.413582         0.596852
 C        -1.231607         3.002726        -0.583588
 C        -1.562757         1.476078        -0.203984
 O        -2.679915         1.164106         2.025644
 C        -1.947828        -0.055548         1.647694
 H         1.006805        -0.665398         0.925109
 H        -0.299059         1.772469         2.620645
 H         0.366877         2.223330         1.190176
 H        -3.205692         3.392795         0.160537
 H        -2.006875         4.353227         1.151653
 H        -1.499786         3.464151        -1.576819
 H        -0.279562         3.372824        -0.500147
 H        -2.288791         1.072906        -0.841974
 H        -1.334283        -0.588510         2.470831
 H        -2.714224        -0.790552         1.313328
