19
Iteration:  4522charge 0 multiplicity 1
 O         0.209416        -0.396874         0.353876
 C        -0.684742         0.539857         0.736602
 C        -0.357157         1.815893         1.589282
 C        -1.840874         2.102202         1.174179
 C        -2.239501         3.412586         0.612785
 C        -1.328814         2.921613        -0.682270
 C        -1.587078         1.396127        -0.172658
 O        -2.641682         1.201317         1.937707
 C        -1.856076        -0.043923         1.654349
 H         0.934820        -0.506767         1.100512
 H        -0.021491         1.784146         2.612111
 H         0.362991         2.447974         0.976408
 H        -3.348580         3.336807         0.770320
 H        -1.925920         4.185220         1.217889
 H        -1.547481         3.179995        -1.795464
 H        -0.381974         3.496622        -0.484941
 H        -2.493653         0.966572        -0.588687
 H        -1.529283        -0.351149         2.699762
 H        -2.422196        -0.875631         1.232420
