19
Iteration:  3270charge 0 multiplicity 1
 O         0.292214        -0.427806         0.386827
 C        -0.694265         0.534863         0.688969
 C        -0.426171         1.776324         1.670684
 C        -1.917957         2.071784         1.197386
 C        -2.181101         3.463110         0.646579
 C        -1.334855         3.032866        -0.609942
 C        -1.498685         1.393240        -0.208502
 O        -2.705907         1.179415         1.919196
 C        -1.888840        -0.060727         1.578748
 H         1.178108        -0.345004         0.941017
 H        -0.232628         1.499842         2.763075
 H         0.223835         2.418522         1.163027
 H        -3.303775         3.610041         0.251037
 H        -1.666916         4.251848         1.246404
 H        -1.631845         3.339321        -1.549668
 H        -0.193512         3.254810        -0.648153
 H        -2.409398         0.885704        -0.728290
 H        -1.583424        -0.464451         2.515104
 H        -2.480444        -0.747865         0.942051
