19
Iteration:  4248
 O         0.332932        -0.361009         0.408895
 C        -0.710334         0.606526         0.833992
 C        -0.321634         1.779822         1.604917
 C        -1.834398         2.059246         1.165440
 C        -2.241729         3.397896         0.647352
 C        -1.378646         2.976366        -0.664655
 C        -1.525279         1.365957        -0.160663
 O        -2.675624         1.244703         1.915776
 C        -1.903883        -0.098595         1.614654
 H         0.172548        -0.783271        -0.359118
 H        -0.152827         1.803343         2.673843
 H         0.579765         2.225634         1.192435
 H        -3.410583         3.402419         0.514513
 H        -2.033127         4.360778         1.104799
 H        -1.764245         3.081666        -1.707962
 H        -0.351310         3.278937        -0.667202
 H        -2.231359         0.836861        -0.713455
 H        -1.713836        -0.404987         2.656602
 H        -2.631515        -0.714753         0.986248
