19
Iteration:  2127charge 0 multiplicity 1
 O         0.202410        -0.466775         0.351438
 C        -0.683787         0.594546         0.748281
 C        -0.440243         1.784815         1.714207
 C        -1.857280         2.079534         1.246445
 C        -2.196166         3.508303         0.587999
 C        -1.288264         3.027951        -0.602064
 C        -1.448131         1.533820        -0.143835
 O        -2.708837         1.053797         1.929943
 C        -1.907964        -0.089490         1.497972
 H         1.088021        -0.254570         0.373089
 H        -0.421461         1.559711         2.797543
 H         0.349916         2.539997         1.539282
 H        -3.176229         3.565077         0.258315
 H        -1.694816         4.315665         1.185670
 H        -1.811224         3.064716        -1.638230
 H        -0.232171         3.428903        -0.676435
 H        -2.282283         1.043880        -0.730126
 H        -1.459643        -0.856773         2.374446
 H        -2.418486        -0.808356         0.789378
