19
Iteration:   207
 O         0.264583        -0.360299         0.265164
 C        -0.668297         0.521737         0.824282
 C        -0.395928         1.817916         1.740389
 C        -1.850025         2.107387         1.195532
 C        -2.175854         3.458065         0.554334
 C        -1.363417         2.945215        -0.637094
 C        -1.532923         1.460851        -0.128174
 O        -2.631028         1.159629         1.879868
 C        -1.936199        -0.137243         1.578527
 H         0.597743        -0.953976         0.905869
 H        -0.305804         1.789685         2.874287
 H         0.539494         2.384141         1.381658
 H        -3.259540         3.645049         0.449295
 H        -1.803235         4.308694         1.151314
 H        -1.909256         3.129783        -1.602732
 H        -0.411874         3.383343        -0.732483
 H        -2.318861         1.023156        -0.617136
 H        -1.586684        -0.443360         2.644010
 H        -2.621108        -0.874003         1.044285
