19
Iteration:  3208
 O         0.319850        -0.324174         0.221884
 C        -0.674071         0.538905         0.756918
 C        -0.421686         1.796944         1.756210
 C        -1.886365         2.111948         1.246505
 C        -2.216361         3.448614         0.576389
 C        -1.249810         2.929012        -0.627869
 C        -1.536232         1.438254        -0.158198
 O        -2.736105         1.148165         1.932224
 C        -1.907118        -0.067748         1.579455
 H         0.641395        -0.928768         1.034995
 H        -0.177210         1.604201         2.817069
 H         0.490324         2.292534         1.473666
 H        -3.111267         3.577449         0.086222
 H        -2.000487         4.314048         1.196925
 H        -1.722638         2.992124        -1.665164
 H        -0.201474         3.051215        -0.537330
 H        -2.403659         1.009659        -0.644743
 H        -1.597471        -0.417972         2.590465
 H        -2.575380        -0.755592         0.982943
