19
Iteration:  4771charge 0 multiplicity 1
 O         0.300184        -0.339647         0.262077
 C        -0.666475         0.528030         0.740028
 C        -0.367368         1.779617         1.664651
 C        -1.848401         2.038909         1.187106
 C        -2.275438         3.370486         0.542964
 C        -1.335075         2.957065        -0.712471
 C        -1.544677         1.424494        -0.134149
 O        -2.674345         1.259996         2.045225
 C        -1.898607        -0.013199         1.669038
 H         0.469985        -0.977394         1.077857
 H        -0.169620         1.504816         2.696201
 H         0.442145         2.206421         1.073323
 H        -3.422745         3.384144         0.454731
 H        -1.807195         4.336120         0.983846
 H        -1.689011         2.872957        -1.729566
 H        -0.396628         3.331715        -0.615986
 H        -2.279049         1.115040        -0.774699
 H        -1.436553        -0.501579         2.582511
 H        -2.508332        -0.745824         1.207589
