19
Iteration:  4899charge 0 multiplicity 1
 O         0.233495        -0.395092         0.280526
 C        -0.664645         0.598679         0.745198
 C        -0.476842         1.787921         1.659272
 C        -1.946799         2.135769         1.266849
 C        -2.157972         3.422391         0.478610
 C        -1.282322         2.868054        -0.684755
 C        -1.569374         1.388599        -0.166206
 O        -2.565525         1.172282         2.122042
 C        -1.878549        -0.034496         1.596081
 H         0.870171        -0.697697         1.070228
 H        -0.204491         1.825077         2.722048
 H         0.066717         2.612845         1.186474
 H        -3.183439         3.506494         0.178533
 H        -1.940028         4.329022         0.909893
 H        -1.728041         3.112362        -1.751960
 H        -0.270729         3.380963        -0.728491
 H        -2.523830         0.954975        -0.700297
 H        -1.477597        -0.618903         2.398311
 H        -2.592355        -0.577637         0.899086
