19
Iteration:  1198
 O         0.297476        -0.321290         0.219301
 C        -0.712232         0.510797         0.841004
 C        -0.342418         1.715472         1.708864
 C        -1.866881         2.086796         1.252628
 C        -2.232356         3.435919         0.618590
 C        -1.243047         2.982905        -0.706408
 C        -1.512400         1.483422        -0.073322
 O        -2.719244         1.129134         1.882895
 C        -1.925113        -0.058971         1.608574
 H         0.724038        -0.860986         0.956563
 H        -0.121410         1.756513         2.750364
 H         0.308031         2.305141         1.120245
 H        -3.254222         3.475680         0.251476
 H        -2.019433         4.379566         1.184553
 H        -1.844064         3.214403        -1.756180
 H        -0.260196         3.273745        -0.749444
 H        -2.386123         1.136057        -0.592179
 H        -1.705072        -0.508756         2.608881
 H        -2.693452        -0.704430         0.948649
