19
Iteration:  3210
 O         0.317259        -0.321847         0.237041
 C        -0.676095         0.534463         0.737456
 C        -0.422538         1.788255         1.743395
 C        -1.897747         2.132081         1.253871
 C        -2.204271         3.424064         0.584169
 C        -1.250559         2.916106        -0.611300
 C        -1.534740         1.444232        -0.154430
 O        -2.736627         1.143312         1.931760
 C        -1.906317        -0.053173         1.565962
 H         0.704770        -0.922505         1.011839
 H        -0.224310         1.627243         2.790412
 H         0.516490         2.345114         1.465353
 H        -3.131750         3.637159         0.122282
 H        -1.977743         4.383926         1.118041
 H        -1.783201         2.999125        -1.707583
 H        -0.199076         2.997770        -0.550231
 H        -2.380620         1.058110        -0.645100
 H        -1.609953        -0.454052         2.643538
 H        -2.515640        -0.774920         0.975852
