19
Iteration:  2109
 O         0.203078        -0.419672         0.314583
 C        -0.631985         0.512829         0.833176
 C        -0.377289         1.728172         1.838327
 C        -1.879195         2.084602         1.255821
 C        -2.167047         3.457946         0.662909
 C        -1.375518         2.906189        -0.616155
 C        -1.515803         1.470170        -0.145452
 O        -2.702568         1.168612         1.758814
 C        -1.860997         0.025771         1.458300
 H         1.039446        -0.085124         0.266261
 H        -0.306635         1.503815         2.890363
 H         0.395497         2.472352         1.379191
 H        -3.261522         3.354301         0.340530
 H        -1.913092         4.345344         1.365955
 H        -1.692514         3.347461        -1.500880
 H        -0.284281         3.291675        -0.680203
 H        -2.328111         1.039818        -0.669305
 H        -1.587862        -0.513712         2.425320
 H        -2.396244        -0.703580         0.922024
