19
Iteration:  4800charge 0 multiplicity 1
 O         0.230685        -0.424851         0.321444
 C        -0.675651         0.566734         0.763419
 C        -0.399034         1.898683         1.635801
 C        -1.822007         2.071079         1.176238
 C        -2.295933         3.449372         0.561796
 C        -1.313253         2.923171        -0.632379
 C        -1.585783         1.399334        -0.138300
 O        -2.527467         1.155108         2.041929
 C        -1.928761        -0.004281         1.570412
 H         0.599064        -0.805117         1.256554
 H         0.028074         1.812583         2.640666
 H         0.445669         2.395241         1.087579
 H        -3.316388         3.291328         0.243033
 H        -2.275724         4.384102         0.984030
 H        -1.665039         3.069781        -1.752290
 H        -0.164634         3.113858        -0.721403
 H        -2.466166         1.009367        -0.798905
 H        -1.585286        -0.619839         2.399126
 H        -2.619356        -0.713408         0.967850
