19
Iteration:    67charge 0 multiplicity 1
 O         0.267841        -0.394553         0.356124
 C        -0.724956         0.534345         0.731333
 C        -0.538622         1.836356         1.603438
 C        -1.909579         2.081035         1.229600
 C        -2.139316         3.470796         0.566702
 C        -1.203056         2.991182        -0.659053
 C        -1.593984         1.486602        -0.198998
 O        -2.608603         1.098207         2.032208
 C        -1.883054        -0.122425         1.590513
 H         0.682010        -0.739233         1.140001
 H        -0.349874         1.708101         2.605512
 H         0.211292         2.618455         1.183804
 H        -3.176065         3.411019         0.240460
 H        -2.044208         4.393902         1.160606
 H        -1.481655         3.425474        -1.647921
 H        -0.194445         3.238430        -0.607237
 H        -2.233840         0.947668        -0.879330
 H        -1.410177        -0.617966         2.401192
 H        -2.656623        -0.713451         1.188228
