19
Iteration:  1147
 O         0.301209        -0.359283         0.312875
 C        -0.709268         0.568580         0.761501
 C        -0.495152         1.795106         1.561122
 C        -1.895760         2.076248         1.158634
 C        -2.130446         3.520946         0.693225
 C        -1.281538         2.967227        -0.628488
 C        -1.496086         1.428137        -0.221896
 O        -2.678279         1.078622         2.017296
 C        -1.943680        -0.091743         1.614339
 H         0.805846        -0.683258         0.994239
 H        -0.433666         1.581071         2.627360
 H         0.270697         2.527390         1.090762
 H        -3.186037         3.616854         0.428137
 H        -1.738969         4.333075         1.289332
 H        -1.679537         3.098553        -1.560861
 H        -0.188040         3.369191        -0.696213
 H        -2.287712         1.110525        -0.968296
 H        -1.513417        -0.639106         2.465944
 H        -2.610644        -0.731332         1.145590
