19
Iteration:  1936
 O         0.270143        -0.410608         0.413896
 C        -0.681789         0.536048         0.776730
 C        -0.521707         1.726984         1.728697
 C        -1.927556         2.062641         1.159654
 C        -2.130049         3.478629         0.635143
 C        -1.277005         3.049023        -0.609258
 C        -1.487071         1.472517        -0.198754
 O        -2.675719         1.129495         1.902725
 C        -1.876080        -0.127376         1.554111
 H         0.878217        -0.039756        -0.353371
 H        -0.241017         1.474965         2.707241
 H         0.252510         2.502583         1.386941
 H        -3.171339         3.684521         0.301840
 H        -1.737503         4.234818         1.244470
 H        -1.830409         3.160219        -1.472467
 H        -0.249524         3.540382        -0.599181
 H        -2.340743         1.039160        -0.745293
 H        -1.644033        -0.586519         2.470215
 H        -2.629002        -0.633353         0.805103
