19
Iteration:  3468
 O         0.345406        -0.352529         0.417387
 C        -0.725092         0.555380         0.785066
 C        -0.444237         1.672429         1.673788
 C        -1.869062         2.100216         1.221624
 C        -2.188415         3.463483         0.606511
 C        -1.318561         3.058537        -0.580847
 C        -1.456923         1.390488        -0.214992
 O        -2.733423         1.193233         1.907220
 C        -1.879858        -0.046089         1.538373
 H         0.164668        -0.897982        -0.472210
 H        -0.227280         1.492942         2.713890
 H         0.516393         2.242132         1.447268
 H        -3.235291         3.295619         0.188870
 H        -2.169748         4.333627         1.201389
 H        -1.642349         3.204477        -1.611206
 H        -0.240995         3.375359        -0.579537
 H        -2.416192         0.818943        -0.550212
 H        -1.520306        -0.504112         2.428324
 H        -2.448171        -0.869698         1.052328
