19
Iteration:  1515charge 0 multiplicity 1
 O         0.211240        -0.487350         0.301315
 C        -0.682343         0.541092         0.783480
 C        -0.431456         1.835597         1.736568
 C        -1.887717         2.117519         1.147730
 C        -2.164195         3.517307         0.609881
 C        -1.376954         3.014234        -0.632616
 C        -1.447007         1.476071        -0.124708
 O        -2.629438         1.079613         1.939698
 C        -1.924728        -0.097528         1.577011
 H         1.021827        -0.028848         0.175812
 H        -0.381235         1.489017         2.760835
 H         0.455602         2.669404         1.567849
 H        -3.160892         3.701388         0.364038
 H        -1.640029         4.302446         1.222459
 H        -1.836765         2.992460        -1.602986
 H        -0.389662         3.400179        -0.745967
 H        -2.156379         1.004811        -0.710169
 H        -1.742602        -0.829702         2.361626
 H        -2.525742        -0.766833         0.944151
