19
Iteration:  2488
 O         0.292112        -0.334704         0.371904
 C        -0.706645         0.571218         0.729574
 C        -0.483436         1.748175         1.767288
 C        -1.860135         2.117354         1.184643
 C        -2.182132         3.480753         0.663859
 C        -1.176776         2.952451        -0.583264
 C        -1.516187         1.516755        -0.185273
 O        -2.719120         1.046803         1.891327
 C        -1.873304        -0.080294         1.545649
 H        -0.049617        -0.715285        -0.544977
 H        -0.656535         1.444519         2.866642
 H         0.315963         2.411473         1.590157
 H        -3.177092         3.460021         0.286059
 H        -2.032834         4.547761         1.117155
 H        -1.416095         3.180447        -1.582453
 H        -0.080769         3.341732        -0.678079
 H        -2.312158         0.907165        -0.764153
 H        -1.659269        -0.460441         2.487235
 H        -2.527307        -0.918916         0.907952
