19
Iteration:  1257charge 0 multiplicity 1
 O         0.230683        -0.359133         0.328298
 C        -0.658381         0.543111         0.764799
 C        -0.433663         1.825006         1.567521
 C        -1.924713         2.082910         1.239848
 C        -2.123228         3.509220         0.551658
 C        -1.271511         3.016305        -0.561252
 C        -1.553728         1.478823        -0.177094
 O        -2.675997         1.023987         2.002550
 C        -1.900958        -0.128225         1.555516
 H         0.448269        -0.722490         1.246042
 H        -0.336249         1.886794         2.698223
 H         0.249639         2.673247         1.131312
 H        -3.115476         3.543109         0.181241
 H        -1.819343         4.413259         0.947612
 H        -1.527957         3.319584        -1.502847
 H        -0.092734         3.255895        -0.532647
 H        -2.462434         0.989592        -0.703408
 H        -1.455612        -0.773585         2.403865
 H        -2.388126        -0.884120         0.905339
