19
Iteration:  2859charge 0 multiplicity 1
 O         0.366152        -0.414962         0.586064
 C        -0.705755         0.520607         0.702223
 C        -0.424504         1.656570         1.571812
 C        -1.827889         2.126455         1.235453
 C        -2.212433         3.469401         0.684478
 C        -1.322876         3.033517        -0.553994
 C        -1.559283         1.491263        -0.191602
 O        -2.690750         1.124768         1.854021
 C        -1.915818        -0.023313         1.417102
 H         0.465265        -0.703647        -0.380526
 H        -0.389404         1.525106         2.612029
 H         0.455144         2.299404         1.237462
 H        -3.206249         3.624503         0.413225
 H        -2.104150         4.400589         1.400625
 H        -1.714396         3.343273        -1.488887
 H        -0.215712         3.224851        -0.456590
 H        -2.329581         0.936416        -0.621625
 H        -1.601813        -0.429583         2.458907
 H        -2.555355        -0.605776         0.766119
