19
Iteration:  3498
 O         0.307891        -0.385150         0.399803
 C        -0.696549         0.620956         0.811321
 C        -0.430956         1.857186         1.705233
 C        -1.953280         2.069917         1.217397
 C        -2.086519         3.454275         0.612854
 C        -1.315348         2.993415        -0.645040
 C        -1.507115         1.412145        -0.205637
 O        -2.686089         1.072968         1.923282
 C        -1.965591        -0.106866         1.527955
 H         0.546021        -0.242737        -0.495563
 H        -0.247003         1.680893         2.801547
 H         0.299904         2.493225         1.146861
 H        -3.020322         3.860151         0.327349
 H        -1.775322         4.208347         1.339121
 H        -1.673348         3.091675        -1.653261
 H        -0.160426         3.123313        -0.491924
 H        -2.366584         0.867033        -0.455554
 H        -1.556319        -0.611019         2.517053
 H        -2.549343        -0.822838         0.872270
