19
Iteration:  2835charge 0 multiplicity 1
 O         0.354100        -0.372983         0.469140
 C        -0.729501         0.623075         0.739766
 C        -0.460058         1.770892         1.707915
 C        -1.913044         2.061713         1.208639
 C        -2.124457         3.411706         0.622371
 C        -1.252673         3.021188        -0.600438
 C        -1.507401         1.496205        -0.273729
 O        -2.713762         1.098113         1.939539
 C        -1.947676        -0.165348         1.505615
 H         0.222007        -0.548176        -0.573636
 H        -0.257874         1.468147         2.758117
 H         0.319785         2.513706         1.349256
 H        -3.125150         3.878087         0.513700
 H        -1.697582         4.320326         1.318016
 H        -1.766587         3.250166        -1.498323
 H        -0.156068         3.382008        -0.561023
 H        -2.236050         0.982022        -0.816028
 H        -1.677963        -0.567476         2.527878
 H        -2.666318        -0.650709         0.889031
