19
Iteration:  2498charge 0 multiplicity 1
 O         0.280670        -0.321474         0.300301
 C        -0.716566         0.543152         0.814336
 C        -0.452820         1.701747         1.811994
 C        -1.901885         2.088512         1.218240
 C        -2.179252         3.469434         0.554627
 C        -1.182943         2.979470        -0.591751
 C        -1.468601         1.481422        -0.101891
 O        -2.740231         1.083989         1.847848
 C        -1.891566        -0.064352         1.570279
 H         0.194854        -0.458351        -0.663756
 H        -0.424979         1.605697         2.937468
 H         0.305086         2.428565         1.547842
 H        -3.220859         3.491533         0.289977
 H        -1.873980         4.413050         1.177809
 H        -1.697381         3.095635        -1.582019
 H        -0.103725         3.453543        -0.544530
 H        -2.342366         1.090485        -0.779876
 H        -1.444257        -0.612128         2.363427
 H        -2.530744        -0.834486         0.938488
