19
Iteration:  2615
 O         0.271991        -0.402452         0.385477
 C        -0.645913         0.576425         0.799504
 C        -0.401887         1.702830         1.770771
 C        -1.849423         2.022674         1.246301
 C        -2.211544         3.463046         0.588631
 C        -1.275680         3.007170        -0.598562
 C        -1.486374         1.482068        -0.204035
 O        -2.720216         1.148625         1.870311
 C        -1.967150        -0.045049         1.489338
 H         0.793609        -0.022109        -0.259320
 H        -0.350166         1.433036         2.854090
 H         0.452587         2.373675         1.493069
 H        -3.321543         3.478530         0.346901
 H        -1.771828         4.311750         1.130464
 H        -1.873764         3.153355        -1.613942
 H        -0.393134         3.588272        -0.493234
 H        -2.248187         0.959322        -0.781374
 H        -1.536801        -0.595346         2.501808
 H        -2.540753        -0.864064         0.988975
