19
Iteration:   518
 O         0.282346        -0.330694         0.234456
 C        -0.674176         0.512519         0.841822
 C        -0.400516         1.752434         1.715772
 C        -1.788665         2.043917         1.243748
 C        -2.171467         3.475419         0.546513
 C        -1.339864         2.966170        -0.683636
 C        -1.543271         1.511797        -0.094647
 O        -2.753833         1.141661         1.854127
 C        -1.868492        -0.065545         1.634183
 H         0.878239        -0.863267         0.902383
 H        -0.231626         1.488792         2.811181
 H         0.350545         2.405158         1.285039
 H        -3.281494         3.351282         0.575739
 H        -2.016121         4.385594         1.093089
 H        -1.889654         2.921068        -1.551626
 H        -0.305685         3.409550        -0.714965
 H        -2.366860         1.136520        -0.517546
 H        -1.636256        -0.651459         2.692615
 H        -2.535714        -0.646916         0.913351
