19
Iteration:  3517charge 0 multiplicity 1
 O         0.260189        -0.351457         0.406276
 C        -0.710434         0.566675         0.782259
 C        -0.486909         1.755843         1.631697
 C        -1.911415         2.064248         1.213477
 C        -2.094788         3.478741         0.614780
 C        -1.257812         2.884147        -0.608249
 C        -1.593888         1.496079        -0.199756
 O        -2.693679         1.097836         1.939123
 C        -1.849060        -0.066728         1.559955
 H         0.912666        -0.010630        -0.099069
 H        -0.491954         1.619716         2.762535
 H         0.249524         2.477340         1.462785
 H        -3.119861         3.729334         0.312801
 H        -1.685256         4.457334         1.245506
 H        -1.833565         3.005085        -1.545321
 H        -0.240569         3.369413        -0.658070
 H        -2.170462         0.964397        -0.928688
 H        -1.423604        -0.744820         2.408571
 H        -2.430315        -0.694635         0.949218
