19
Iteration:  3980charge 0 multiplicity 1
 O         0.348195        -0.383404         0.362034
 C        -0.686310         0.442460         0.839608
 C        -0.337846         1.778229         1.615058
 C        -1.831189         2.122373         1.171354
 C        -2.280138         3.408798         0.593112
 C        -1.319215         3.075444        -0.624685
 C        -1.534931         1.413434        -0.137042
 O        -2.674260         1.179773         1.892480
 C        -1.930407        -0.050977         1.625683
 H        -0.051494        -1.015220        -0.152227
 H        -0.314393         1.541388         2.699746
 H         0.467763         2.461798         1.201340
 H        -3.289645         3.271612         0.259179
 H        -2.142456         4.291303         1.240663
 H        -1.647160         3.688700        -1.628408
 H        -0.303859         3.398727        -0.433338
 H        -2.377119         0.901499        -0.558736
 H        -1.540934        -0.500659         2.608604
 H        -2.551866        -0.788278         1.056413
