19
Iteration:  1464
 O         0.304569        -0.346600         0.267988
 C        -0.722631         0.529859         0.768810
 C        -0.346119         1.759340         1.545195
 C        -1.899633         2.088846         1.215969
 C        -2.198586         3.481985         0.663485
 C        -1.241719         2.957081        -0.532705
 C        -1.576811         1.428984        -0.207376
 O        -2.721040         1.148289         1.947552
 C        -1.939375        -0.087457         1.604211
 H         0.871599        -0.642012         1.104069
 H        -0.161002         1.768394         2.620253
 H         0.397852         2.381416         1.159457
 H        -3.166176         3.547411         0.144826
 H        -2.027996         4.530499         1.175025
 H        -1.538492         3.186484        -1.524053
 H        -0.115823         3.227960        -0.342054
 H        -2.434811         1.018664        -0.836090
 H        -1.605992        -0.539849         2.569644
 H        -2.477624        -0.941705         1.144668
