19
Iteration:   430charge 0 multiplicity 1
 O         0.225612        -0.351690         0.241492
 C        -0.678809         0.539585         0.804704
 C        -0.322515         1.820237         1.766666
 C        -1.859452         2.100516         1.265417
 C        -2.214476         3.387882         0.586107
 C        -1.317826         2.956652        -0.602855
 C        -1.540565         1.388035        -0.156977
 O        -2.717885         1.180808         1.844980
 C        -1.857276         0.002596         1.564993
 H         0.768018        -0.866781         0.845247
 H        -0.124965         1.596014         2.787526
 H         0.432846         2.552229         1.312596
 H        -3.289167         3.331827         0.289191
 H        -1.996615         4.283474         1.170288
 H        -1.788677         3.114582        -1.568608
 H        -0.234039         3.136211        -0.661908
 H        -2.372152         0.961531        -0.571434
 H        -1.624217        -0.610363         2.543946
 H        -2.422485        -0.836123         1.086355
