19
Iteration:   545charge 0 multiplicity 1
 O         0.268210        -0.336223         0.257315
 C        -0.655904         0.618465         0.721010
 C        -0.408139         1.767965         1.718104
 C        -1.899539         2.019989         1.184999
 C        -2.204501         3.455926         0.537213
 C        -1.292921         2.951916        -0.551708
 C        -1.537402         1.431908        -0.207402
 O        -2.664811         1.193956         1.988178
 C        -1.900885        -0.083040         1.597034
 H         0.608445        -0.842604         1.081659
 H        -0.374097         1.474107         2.738577
 H         0.514814         2.374236         1.420944
 H        -3.253291         3.420872         0.267340
 H        -2.008527         4.357854         1.179066
 H        -1.773798         3.195097        -1.577903
 H        -0.257161         3.195851        -0.467882
 H        -2.209339         0.766706        -0.954144
 H        -1.429473        -0.581748         2.522579
 H        -2.696288        -0.766226         1.225216
