19
Iteration:  4022
 O         0.234229        -0.398344         0.499784
 C        -0.690165         0.602187         0.752213
 C        -0.415348         1.857294         1.621792
 C        -1.911319         2.051544         1.210311
 C        -2.128605         3.428270         0.628739
 C        -1.340250         3.010632        -0.620299
 C        -1.582832         1.364189        -0.233878
 O        -2.630137         1.106149         1.992333
 C        -1.855671        -0.075796         1.533497
 H         0.517228        -0.304212        -0.467849
 H        -0.211051         1.759708         2.727008
 H         0.386703         2.509472         1.155192
 H        -3.169923         3.629061         0.355652
 H        -1.716626         4.362435         1.207352
 H        -1.716896         3.186844        -1.684762
 H        -0.319016         3.297444        -0.796407
 H        -2.345380         0.872831        -0.919106
 H        -1.633887        -0.607521         2.404645
 H        -2.384161        -0.628027         0.812510
