19
Iteration:   282
 O         0.297465        -0.344058         0.272061
 C        -0.732491         0.506323         0.716378
 C        -0.355708         1.736241         1.606612
 C        -1.925674         2.028884         1.218011
 C        -2.200097         3.416823         0.538705
 C        -1.271454         2.996795        -0.547941
 C        -1.525123         1.479407        -0.207616
 O        -2.712296         1.193635         2.018516
 C        -1.916790        -0.066555         1.647655
 H         0.864514        -0.414514         1.072482
 H        -0.081986         1.566532         2.731643
 H         0.348435         2.270783         1.126368
 H        -3.231813         3.542190         0.156988
 H        -1.960380         4.344890         1.064291
 H        -1.593583         3.201488        -1.578564
 H        -0.227473         3.215413        -0.283335
 H        -2.289339         0.944065        -0.875608
 H        -1.518247        -0.438846         2.583480
 H        -2.565280        -0.731316         1.049142
