19
Iteration:  2964charge 0 multiplicity 1
 O         0.422980        -0.264101         0.397073
 C        -0.703638         0.567466         0.756308
 C        -0.501649         1.746385         1.678330
 C        -1.903223         2.037564         1.173965
 C        -2.094695         3.448050         0.677793
 C        -1.267812         2.953031        -0.583489
 C        -1.551780         1.446435        -0.229840
 O        -2.698511         1.116993         1.905204
 C        -1.997452        -0.033757         1.540100
 H         0.118050        -0.981083        -0.064146
 H        -0.541516         1.428191         2.745799
 H         0.331946         2.469197         1.245518
 H        -3.152487         3.651008         0.422038
 H        -1.598380         4.019376         1.367034
 H        -1.581090         3.166173        -1.591459
 H        -0.179726         3.452209        -0.469513
 H        -2.440709         0.885488        -0.739446
 H        -1.622366        -0.636820         2.360582
 H        -2.692898        -0.807101         1.091881
