19
Iteration:   927charge 0 multiplicity 1
 O         0.193623        -0.358751         0.221270
 C        -0.640465         0.560630         0.753578
 C        -0.417084         1.819321         1.681730
 C        -1.869439         2.069729         1.243117
 C        -2.203440         3.383150         0.637546
 C        -1.281596         2.911825        -0.577691
 C        -1.515305         1.444107        -0.126786
 O        -2.699331         1.148948         1.914025
 C        -1.856656        -0.028491         1.565693
 H         0.856995        -0.796552         0.881451
 H        -0.282008         1.713921         2.781976
 H         0.207400         2.614269         1.350880
 H        -3.239420         3.612976         0.412039
 H        -1.759485         4.275280         1.078365
 H        -1.641079         3.114844        -1.649093
 H        -0.419254         3.422471        -0.526018
 H        -2.304648         0.896684        -0.682991
 H        -1.554872        -0.483174         2.483220
 H        -2.384443        -0.670497         0.934530
