19
Iteration:  4539charge 0 multiplicity 1
 O         0.224580        -0.438867         0.307703
 C        -0.679738         0.532024         0.812234
 C        -0.367234         1.841018         1.625857
 C        -1.871554         2.075706         1.212368
 C        -2.217847         3.432029         0.545336
 C        -1.414229         2.964592        -0.671475
 C        -1.528324         1.458151        -0.175617
 O        -2.625345         1.162857         1.996601
 C        -1.823882        -0.019448         1.642680
 H         0.836870        -0.792374         1.089673
 H        -0.318164         1.673000         2.726716
 H         0.353791         2.479896         1.136124
 H        -3.186082         3.617236         0.082326
 H        -1.793921         4.467537         0.978102
 H        -1.927618         3.063210        -1.609522
 H        -0.368601         3.176531        -0.655140
 H        -2.302020         0.893092        -0.721061
 H        -1.562707        -0.645477         2.524308
 H        -2.502279        -0.656709         1.044141
