19
Iteration:  2610charge 0 multiplicity 1
 O         0.251332        -0.425535         0.407472
 C        -0.659540         0.600804         0.789141
 C        -0.360819         1.722502         1.753234
 C        -1.868553         2.035746         1.232521
 C        -2.205363         3.412763         0.651873
 C        -1.335341         2.991451        -0.593295
 C        -1.428974         1.439272        -0.225793
 O        -2.714675         1.143165         1.835545
 C        -1.986350        -0.000201         1.500797
 H         0.989113         0.082104        -0.164706
 H        -0.366576         1.516310         2.811261
 H         0.473257         2.396726         1.467597
 H        -3.338637         3.496951         0.513603
 H        -1.826437         4.311494         1.158620
 H        -1.679764         3.348815        -1.509821
 H        -0.309175         3.504914        -0.670646
 H        -2.355574         1.021494        -0.682373
 H        -1.579390        -0.478483         2.344991
 H        -2.473751        -0.849453         0.904672
