19
Iteration:   115
 O         0.276408        -0.415880         0.293718
 C        -0.642121         0.550324         0.711625
 C        -0.475941         1.753997         1.770850
 C        -1.746206         2.100230         1.278581
 C        -2.112106         3.394455         0.632124
 C        -1.461244         2.909276        -0.697888
 C        -1.440755         1.466744        -0.223419
 O        -2.735653         1.194336         1.893287
 C        -1.922085        -0.000460         1.614678
 H         1.072182        -0.462231         1.000986
 H        -0.319734         1.481226         2.915791
 H         0.211252         2.592386         1.369552
 H        -3.219088         3.455787         0.631385
 H        -1.772183         4.346342         1.093415
 H        -2.021621         3.078964        -1.668032
 H        -0.406348         3.421095        -0.883875
 H        -2.402313         0.976787        -0.761656
 H        -1.621018        -0.404189         2.640664
 H        -2.583185        -0.769904         0.985353
