19
Iteration:   912
 O         0.222767        -0.389747         0.207497
 C        -0.664362         0.623693         0.826053
 C        -0.382830         1.873566         1.748079
 C        -1.883663         2.107785         1.210844
 C        -2.173312         3.496334         0.685441
 C        -1.355554         2.852564        -0.608776
 C        -1.512919         1.443950        -0.118969
 O        -2.714437         1.169614         1.868528
 C        -1.799176        -0.121142         1.506414
 H         0.604184        -0.810299         1.061238
 H        -0.294031         1.604834         2.773202
 H         0.527447         2.519075         1.319895
 H        -3.196943         3.364840         0.351569
 H        -1.913867         4.350150         1.370895
 H        -1.895759         3.014010        -1.549998
 H        -0.162027         3.026037        -0.834959
 H        -2.500308         0.791579        -0.609176
 H        -1.580558        -0.648521         2.445752
 H        -2.476793        -0.735475         0.819989
