19
Iteration:  1389
 O         0.302447        -0.354299         0.262264
 C        -0.681653         0.483700         0.777449
 C        -0.355091         1.809711         1.686124
 C        -1.816051         2.109646         1.217244
 C        -2.203990         3.493180         0.619817
 C        -1.330155         3.002748        -0.647814
 C        -1.486511         1.461629        -0.159727
 O        -2.710815         1.134274         1.897261
 C        -2.008075        -0.141437         1.627041
 H         0.563911        -0.974565         0.879014
 H        -0.013581         1.775501         2.749127
 H         0.424921         2.335662         1.247464
 H        -3.270589         3.564330         0.493261
 H        -1.970952         4.326134         1.158179
 H        -1.796162         3.202157        -1.568081
 H        -0.261650         3.346477        -0.465931
 H        -2.326588         0.951114        -0.729973
 H        -1.569209        -0.573175         2.591802
 H        -2.683739        -0.793081         1.004736
