19
Iteration:  1458charge 0 multiplicity 1
 O         0.321015        -0.349162         0.254786
 C        -0.744765         0.463067         0.805486
 C        -0.434187         1.778474         1.560822
 C        -1.916600         2.117518         1.170279
 C        -2.165445         3.491948         0.669888
 C        -1.234729         2.991827        -0.532447
 C        -1.561311         1.422177        -0.192189
 O        -2.690346         1.148158         1.970902
 C        -1.914990        -0.105320         1.584004
 H         0.723436        -0.666734         1.112065
 H        -0.064971         1.755774         2.641862
 H         0.354880         2.409893         1.052864
 H        -3.163298         3.531474         0.171999
 H        -2.094206         4.378968         1.205563
 H        -1.599823         3.199550        -1.596909
 H        -0.210535         3.164294        -0.420216
 H        -2.316141         0.962037        -0.836685
 H        -1.485109        -0.373646         2.585707
 H        -2.589099        -0.794141         1.040081
