19
Iteration:  3680charge 0 multiplicity 1
 O         0.189871        -0.439875         0.375973
 C        -0.687442         0.584921         0.773322
 C        -0.379642         1.874784         1.720776
 C        -1.912772         2.059186         1.209366
 C        -2.192168         3.468297         0.536066
 C        -1.311834         2.952807        -0.669090
 C        -1.508747         1.458544        -0.145969
 O        -2.666247         1.060521         1.991214
 C        -1.851131        -0.028146         1.585733
 H         0.860689        -0.143013        -0.269271
 H        -0.135687         1.556736         2.747234
 H         0.424680         2.479479         1.283503
 H        -3.206528         3.673176         0.292682
 H        -1.792602         4.347031         1.120597
 H        -1.845933         3.009708        -1.598177
 H        -0.284086         3.397583        -0.727448
 H        -2.276633         0.956277        -0.803093
 H        -1.623590        -0.576105         2.506803
 H        -2.394728        -0.813148         0.820424
