19
Iteration:  4758
 O         0.295190        -0.352423         0.242867
 C        -0.727665         0.532983         0.787470
 C        -0.409843         1.776560         1.675148
 C        -1.842506         2.133514         1.187531
 C        -2.189680         3.448407         0.575603
 C        -1.364273         2.879607        -0.696559
 C        -1.540247         1.407698        -0.195231
 O        -2.611719         1.171824         1.954202
 C        -1.894585        -0.016877         1.729931
 H         0.614091        -0.957851         0.851922
 H        -0.286167         1.699116         2.746081
 H         0.316777         2.584750         1.457658
 H        -3.216580         3.451798         0.182744
 H        -2.073479         4.335873         1.184733
 H        -1.873442         3.231686        -1.667809
 H        -0.368485         3.231862        -0.812574
 H        -2.380930         0.793641        -0.513333
 H        -1.470089        -0.367456         2.688838
 H        -2.583174        -0.786073         1.315569
