19
Iteration:    78
 O         0.277979        -0.377703         0.376472
 C        -0.738975         0.535792         0.782531
 C        -0.411488         1.803106         1.523983
 C        -1.948775         2.079474         1.203462
 C        -2.179631         3.531294         0.567499
 C        -1.247528         2.979754        -0.582098
 C        -1.537080         1.487125        -0.206162
 O        -2.657563         1.060758         2.020004
 C        -1.918917        -0.118141         1.598818
 H         0.797331        -0.645725         1.240863
 H        -0.072068         1.786378         2.496526
 H         0.257778         2.403075         0.811974
 H        -3.185219         3.750851         0.216369
 H        -1.717882         4.404852         1.052499
 H        -1.598986         3.122132        -1.626095
 H        -0.281004         3.318335        -0.433971
 H        -2.325361         1.051353        -0.811380
 H        -1.576298        -0.653984         2.450558
 H        -2.456849        -0.782346         0.966770
