19
Iteration:  3304
 O         0.217597        -0.475315         0.375655
 C        -0.705494         0.544375         0.773452
 C        -0.443656         1.761002         1.665925
 C        -1.860679         2.094793         1.272250
 C        -2.262302         3.464372         0.551090
 C        -1.247781         3.006830        -0.622954
 C        -1.444543         1.480591        -0.124561
 O        -2.669070         1.142311         1.882096
 C        -1.877919        -0.081429         1.563011
 H         1.064885        -0.050928         0.272701
 H        -0.166647         1.641554         2.744674
 H         0.266295         2.482992         1.278338
 H        -3.387583         3.504184         0.147848
 H        -2.099480         4.460154         1.050180
 H        -1.761916         3.312236        -1.436934
 H        -0.195970         3.385037        -0.664439
 H        -2.381795         0.990678        -0.545972
 H        -1.520258        -0.537138         2.454540
 H        -2.503470        -0.846835         0.999040
