19
Iteration:  2554charge 0 multiplicity 1
 O         0.245182        -0.404785         0.462107
 C        -0.694321         0.583960         0.724743
 C        -0.461550         1.711529         1.646654
 C        -1.936605         2.064468         1.189993
 C        -2.162017         3.507245         0.635092
 C        -1.247251         3.043131        -0.598634
 C        -1.543614         1.509971        -0.271975
 O        -2.657126         1.079952         1.961376
 C        -1.894508        -0.159087         1.520362
 H         1.101681        -0.108431         0.482204
 H        -0.456717         1.519543         2.780525
 H         0.211153         2.443743         1.353722
 H        -3.222975         3.613073         0.513663
 H        -1.720392         4.474528         1.109933
 H        -1.602947         3.368370        -1.580222
 H        -0.139281         3.399077        -0.336013
 H        -2.335896         1.080144        -1.022636
 H        -1.460597        -0.636472         2.339163
 H        -2.525703        -0.830300         0.793167
