19
Iteration:  3306charge 0 multiplicity 1
 O         0.214060        -0.486443         0.373171
 C        -0.693046         0.536260         0.787934
 C        -0.441630         1.762111         1.677118
 C        -1.868043         2.108006         1.270897
 C        -2.264852         3.455888         0.543514
 C        -1.238758         2.999740        -0.620936
 C        -1.451054         1.487210        -0.139025
 O        -2.673940         1.143334         1.892443
 C        -1.876870        -0.079574         1.549502
 H         1.103081         0.038630         0.214330
 H        -0.185212         1.661800         2.733187
 H         0.297068         2.521025         1.273071
 H        -3.313651         3.568755         0.179092
 H        -2.131511         4.458371         1.035327
 H        -1.802802         3.380730        -1.483777
 H        -0.254003         3.388938        -0.628977
 H        -2.351782         0.997064        -0.556700
 H        -1.505378        -0.620341         2.441077
 H        -2.505080        -0.881997         1.078264
