19
Iteration:  1473charge 0 multiplicity 1
 O         0.252772        -0.345323         0.298761
 C        -0.677718         0.606840         0.663875
 C        -0.280315         1.740446         1.608227
 C        -1.873219         2.041913         1.251334
 C        -2.232228         3.437572         0.590738
 C        -1.246739         2.912458        -0.541519
 C        -1.584801         1.487222        -0.170695
 O        -2.745369         1.132854         1.903263
 C        -1.943077        -0.055182         1.671984
 H         1.012540        -0.520558         0.979539
 H        -0.232386         1.467373         2.612767
 H         0.479585         2.432223         1.144654
 H        -3.274981         3.510792         0.345489
 H        -1.766489         4.346619         1.180961
 H        -1.496744         3.283209        -1.483804
 H        -0.219501         3.323527        -0.429020
 H        -2.430136         1.077783        -0.686719
 H        -1.646045        -0.560075         2.529609
 H        -2.509979        -0.749396         1.041945
