19
Iteration:  3911charge 0 multiplicity 1
 O         0.364293        -0.241403         0.388962
 C        -0.709527         0.507809         0.732551
 C        -0.438407         1.762429         1.588708
 C        -1.900285         2.064890         1.212933
 C        -2.110560         3.483232         0.607934
 C        -1.301887         3.004251        -0.598109
 C        -1.600361         1.402052        -0.146039
 O        -2.702684         1.121215         1.926453
 C        -1.909685        -0.111758         1.593618
 H         0.310107        -1.177107         0.613173
 H        -0.209655         1.562659         2.711777
 H         0.333617         2.277954         1.029646
 H        -3.072702         3.814154         0.190272
 H        -1.607925         4.356789         1.217231
 H        -1.923436         3.112725        -1.554012
 H        -0.196903         3.329849        -0.640814
 H        -2.446287         0.888565        -0.747367
 H        -1.550074        -0.557219         2.502214
 H        -2.588412        -0.766208         1.094647
