19
Iteration:  1911
 O         0.315024        -0.362510         0.360013
 C        -0.675213         0.575636         0.725820
 C        -0.369463         1.735543         1.761935
 C        -1.807120         2.118466         1.237250
 C        -2.163184         3.451397         0.674147
 C        -1.307886         2.905703        -0.590037
 C        -1.460328         1.442274        -0.182444
 O        -2.851915         1.144051         1.826203
 C        -1.943904        -0.040407         1.540234
 H         0.617535        -0.262262        -0.601721
 H        -0.143395         1.334172         2.853623
 H         0.466772         2.411102         1.641925
 H        -3.246690         3.279261         0.542727
 H        -1.854170         4.516279         1.170232
 H        -1.790762         3.095629        -1.601992
 H        -0.252559         3.255892        -0.404431
 H        -2.296885         0.944403        -0.645761
 H        -1.681678        -0.354751         2.573954
 H        -2.521882        -0.719826         0.850050
