19
Iteration:  2319
 O         0.213204        -0.438751         0.398302
 C        -0.667977         0.558448         0.828857
 C        -0.355416         1.822144         1.747733
 C        -1.901394         2.074231         1.221119
 C        -2.152025         3.517095         0.665365
 C        -1.325286         3.004898        -0.580879
 C        -1.484055         1.472594        -0.119108
 O        -2.685748         1.043019         1.818422
 C        -1.942477        -0.092359         1.455068
 H         0.774736         0.047203        -0.285934
 H        -0.399525         1.702299         2.819231
 H         0.391112         2.389215         1.320025
 H        -3.144684         3.743428         0.203703
 H        -1.650966         4.276181         1.094643
 H        -1.885079         3.267355        -1.516985
 H        -0.354757         3.333214        -0.639561
 H        -2.236641         0.983140        -0.717331
 H        -1.576546        -0.722014         2.362628
 H        -2.432892        -0.713330         0.643232
