19
Iteration:   852charge 0 multiplicity 1
 O         0.314820        -0.340961         0.296502
 C        -0.700421         0.563027         0.741649
 C        -0.436572         1.840051         1.550190
 C        -1.908223         2.065529         1.158919
 C        -2.169811         3.395709         0.650350
 C        -1.273558         2.925871        -0.494615
 C        -1.597948         1.443145        -0.171923
 O        -2.649934         1.125199         1.945807
 C        -1.875922        -0.015840         1.573708
 H         0.525477        -0.880500         0.991516
 H        -0.299145         1.589280         2.631960
 H         0.274149         2.543893         1.241386
 H        -3.234702         3.547915         0.328863
 H        -1.898030         4.265254         1.235591
 H        -1.605975         3.191160        -1.533808
 H        -0.209152         3.182934        -0.438978
 H        -2.404787         0.981639        -0.542962
 H        -1.707595        -0.668642         2.551582
 H        -2.542300        -0.639961         0.913294
