19
Iteration:   511
 O         0.277887        -0.357052         0.249255
 C        -0.616953         0.578018         0.821431
 C        -0.356286         1.772446         1.709492
 C        -1.867248         2.093184         1.261047
 C        -2.123238         3.459418         0.559100
 C        -1.346444         2.974222        -0.637311
 C        -1.547567         1.492122        -0.077953
 O        -2.779996         1.138997         1.873430
 C        -1.896881        -0.141056         1.596874
 H         0.807705        -0.783561         0.889584
 H        -0.065717         1.661611         2.810496
 H         0.347652         2.398786         1.209130
 H        -3.211916         3.329017         0.336126
 H        -1.976535         4.464501         1.011317
 H        -1.942890         3.064771        -1.592936
 H        -0.348255         3.287834        -0.921949
 H        -2.399447         0.877880        -0.617927
 H        -1.613717        -0.567668         2.594891
 H        -2.524781        -0.713237         0.884530
