19
Iteration:  2720charge 0 multiplicity 1
 O         0.304896        -0.395322         0.533418
 C        -0.713226         0.587065         0.726169
 C        -0.349611         1.708301         1.703904
 C        -1.881295         2.063216         1.175570
 C        -2.147114         3.511128         0.698279
 C        -1.342060         3.044682        -0.604969
 C        -1.528652         1.527969        -0.170472
 O        -2.709274         1.076735         1.843563
 C        -1.891190        -0.055554         1.421983
 H         0.059353        -1.357272         0.261613
 H        -0.201611         1.460970         2.699372
 H         0.384289         2.523861         1.323455
 H        -3.273591         3.539116         0.609856
 H        -1.994434         4.326522         1.304487
 H        -1.814129         3.218483        -1.550404
 H        -0.297413         3.360859        -0.789144
 H        -2.248366         0.866378        -0.756247
 H        -1.532560        -0.582631         2.178018
 H        -2.386671        -0.628695         0.648639
