19
Iteration:  3861
 O         0.279323        -0.395023         0.404261
 C        -0.696328         0.512980         0.858349
 C        -0.419712         1.768644         1.671052
 C        -1.855940         2.111042         1.172671
 C        -2.253932         3.513579         0.587022
 C        -1.320500         2.979326        -0.655552
 C        -1.533758         1.529990        -0.192280
 O        -2.633081         1.077724         1.966107
 C        -1.823760        -0.052467         1.574597
 H        -0.052961        -1.110964        -0.273198
 H        -0.364770         1.558901         2.742312
 H         0.399785         2.373584         1.301440
 H        -3.338167         3.410103         0.156661
 H        -1.970004         4.411885         1.062951
 H        -1.673391         3.241841        -1.699396
 H        -0.324235         3.404038        -0.686373
 H        -2.315435         1.131903        -0.812150
 H        -1.444267        -0.620684         2.523946
 H        -2.420066        -0.810917         0.939175
