19
Iteration:   501
 O         0.271726        -0.362332         0.262010
 C        -0.661743         0.576542         0.775355
 C        -0.332384         1.811307         1.696901
 C        -1.918848         2.121689         1.289890
 C        -2.160640         3.451523         0.617890
 C        -1.341268         2.903164        -0.653735
 C        -1.490727         1.436974        -0.113779
 O        -2.743746         1.115986         1.920679
 C        -1.927149        -0.073267         1.530812
 H         0.739795        -0.686128         1.078226
 H        -0.062178         1.716134         2.783257
 H         0.320217         2.584761         1.211488
 H        -3.107103         3.671233         0.128193
 H        -1.788720         4.390044         1.108127
 H        -1.908832         3.212940        -1.610939
 H        -0.308022         3.260900        -0.697442
 H        -2.335740         0.830012        -0.725876
 H        -1.655276        -0.587561         2.417149
 H        -2.368506        -0.918312         1.023269
