19
Iteration:  1913charge 0 multiplicity 1
 O         0.320913        -0.369007         0.357901
 C        -0.678787         0.577355         0.717581
 C        -0.353385         1.730895         1.774761
 C        -1.818507         2.111205         1.227379
 C        -2.160712         3.448682         0.680110
 C        -1.319384         2.909650        -0.605894
 C        -1.464088         1.459378        -0.186053
 O        -2.854463         1.138408         1.839659
 C        -1.947790        -0.022073         1.544849
 H         0.607497        -0.245229        -0.493739
 H        -0.219326         1.376971         2.821220
 H         0.529861         2.438254         1.668789
 H        -3.232993         3.244254         0.548275
 H        -1.818849         4.378204         1.148404
 H        -1.748676         3.141806        -1.540897
 H        -0.215449         3.222682        -0.421878
 H        -2.252634         0.893887        -0.687663
 H        -1.680595        -0.298637         2.520493
 H        -2.540233        -0.775105         0.804410
