19
Iteration:  2205charge 0 multiplicity 1
 O         0.248857        -0.446492         0.304393
 C        -0.710156         0.545626         0.828244
 C        -0.456563         1.796053         1.850391
 C        -1.873151         2.103998         1.176724
 C        -2.157187         3.514836         0.604158
 C        -1.279760         3.004745        -0.613139
 C        -1.408947         1.523925        -0.112145
 O        -2.726511         1.049530         1.868178
 C        -1.920603        -0.109852         1.533734
 H         0.538590        -0.103193        -0.498073
 H        -0.536125         1.521877         2.886953
 H         0.418457         2.382146         1.365494
 H        -3.156130         3.617843         0.320067
 H        -1.644316         4.425745         1.070880
 H        -1.856603         3.005321        -1.550549
 H        -0.361873         3.639608        -1.029557
 H        -2.252646         1.008415        -0.590160
 H        -1.459560        -0.598975         2.526492
 H        -2.389192        -0.838052         0.889380
