19
Iteration:   986charge 0 multiplicity 1
 O         0.241501        -0.336713         0.277616
 C        -0.645589         0.612228         0.743914
 C        -0.305988         1.819020         1.661383
 C        -1.864597         2.057025         1.225037
 C        -2.178569         3.447976         0.652979
 C        -1.310559         2.906506        -0.610815
 C        -1.587587         1.422025        -0.222549
 O        -2.728405         1.118546         1.987336
 C        -1.907593        -0.057934         1.551118
 H         0.717391        -0.651052         0.990358
 H        -0.225164         1.632284         2.738602
 H         0.386359         2.681833         1.364374
 H        -3.188825         3.558919         0.141480
 H        -1.807239         4.360838         1.193771
 H        -1.762903         3.222981        -1.501379
 H        -0.147398         3.145946        -0.464428
 H        -2.291544         0.834285        -0.746178
 H        -1.750463        -0.726714         2.481670
 H        -2.552934        -0.781312         0.906650
