19
Iteration:  3418charge 0 multiplicity 1
 O         0.307759        -0.384617         0.395418
 C        -0.689794         0.619287         0.776821
 C        -0.384242         1.798860         1.730987
 C        -1.988688         2.071433         1.160839
 C        -2.158841         3.446324         0.602635
 C        -1.272495         2.971663        -0.561381
 C        -1.550119         1.526268        -0.217976
 O        -2.668083         1.078991         1.924582
 C        -1.909539        -0.075293         1.511285
 H         0.084178        -1.258771         0.447241
 H        -0.113360         1.879526         2.804548
 H         0.334501         2.465909         1.256878
 H        -3.204600         3.535692         0.308375
 H        -1.651403         4.341194         1.110447
 H        -1.758882         3.262202        -1.571298
 H        -0.240026         3.161841        -0.649125
 H        -2.139711         0.926076        -0.841399
 H        -1.621454        -0.691526         2.479028
 H        -2.495243        -0.763505         0.860911
