19
Iteration:  1720charge 0 multiplicity 1
 O         0.311783        -0.368179         0.355703
 C        -0.672286         0.594362         0.733705
 C        -0.482463         1.658869         1.773753
 C        -1.863512         2.084770         1.201554
 C        -2.188691         3.416317         0.706536
 C        -1.275690         3.000438        -0.609675
 C        -1.455701         1.500713        -0.186773
 O        -2.700753         1.180492         1.828767
 C        -1.902635        -0.069145         1.546568
 H        -0.165270        -0.903171        -0.269887
 H        -0.420723         1.425291         2.745613
 H         0.338240         2.427288         1.671031
 H        -3.321190         3.543784         0.626582
 H        -1.963161         4.293622         1.278457
 H        -1.725889         3.124240        -1.546091
 H        -0.222157         3.393702        -0.564778
 H        -2.198754         1.015077        -0.844314
 H        -1.539301        -0.635486         2.426642
 H        -2.476524        -0.645636         0.897773
