19
Iteration:  2027
 O         0.249331        -0.428366         0.376876
 C        -0.672978         0.562334         0.805402
 C        -0.432403         1.759922         1.734597
 C        -1.893981         2.104321         1.243007
 C        -2.149358         3.471672         0.621720
 C        -1.244132         2.992768        -0.611814
 C        -1.477156         1.474258        -0.151094
 O        -2.788874         1.097236         1.891891
 C        -1.858421        -0.063873         1.481716
 H         0.716824        -0.079414        -0.392931
 H        -0.212340         1.604072         2.806980
 H         0.378951         2.265768         1.340756
 H        -3.201106         3.445545         0.396649
 H        -1.994783         4.360068         1.138528
 H        -1.841457         3.175417        -1.561775
 H        -0.305596         3.428840        -0.584374
 H        -2.334745         1.036383        -0.739853
 H        -1.438851        -0.559815         2.411699
 H        -2.412648        -0.732498         0.769341
