19
Iteration:  1003
 O         0.230539        -0.375474         0.233911
 C        -0.659514         0.557060         0.811563
 C        -0.451519         1.824667         1.704425
 C        -1.911366         2.082190         1.248675
 C        -2.126081         3.432153         0.630761
 C        -1.349427         2.933728        -0.670003
 C        -1.433374         1.483039        -0.077206
 O        -2.702591         1.125730         1.937044
 C        -1.881824        -0.038619         1.534334
 H         0.754972        -0.829605         0.849101
 H        -0.144276         1.695917         2.772546
 H         0.204190         2.444178         1.199076
 H        -3.177942         3.613224         0.526444
 H        -1.641742         4.188604         1.222981
 H        -1.969049         2.855172        -1.641826
 H        -0.520276         3.422928        -0.968412
 H        -2.229804         0.858875        -0.694508
 H        -1.598515        -0.648779         2.345776
 H        -2.385616        -0.624066         0.823233
