19
Iteration:  2599
 O         0.233145        -0.446341         0.437625
 C        -0.673485         0.558953         0.747370
 C        -0.381518         1.769950         1.709278
 C        -1.818739         2.082522         1.190952
 C        -2.183853         3.399977         0.720570
 C        -1.375206         2.999927        -0.593084
 C        -1.441773         1.484991        -0.217383
 O        -2.739233         1.152052         1.799199
 C        -1.902028        -0.036218         1.515790
 H         1.054776        -0.055589         0.233138
 H        -0.211343         1.531693         2.767891
 H         0.341979         2.511045         1.352327
 H        -3.283630         3.470024         0.462976
 H        -1.892205         4.228704         1.391461
 H        -1.836147         3.194452        -1.510517
 H        -0.282817         3.252967        -0.416907
 H        -2.217737         0.879273        -0.774331
 H        -1.716047        -0.554222         2.419311
 H        -2.559612        -0.606640         0.763030
