19
Iteration:  1076
 O         0.223006        -0.344388         0.255863
 C        -0.666434         0.511264         0.841368
 C        -0.429895         1.798184         1.601683
 C        -1.926884         2.069809         1.139226
 C        -2.270572         3.482609         0.612166
 C        -1.218629         2.994611        -0.637499
 C        -1.510450         1.442981        -0.140295
 O        -2.607785         1.098437         2.038547
 C        -1.886226        -0.059398         1.608647
 H         0.497471        -0.964734         0.869758
 H        -0.493471         1.808826         2.684498
 H         0.343381         2.388737         1.190349
 H        -3.262675         3.581612         0.235478
 H        -1.895912         4.300198         1.252420
 H        -1.460608         3.335259        -1.722525
 H        -0.233750         3.339516        -0.464388
 H        -2.275843         1.069498        -0.848334
 H        -1.769245        -0.844906         2.382279
 H        -2.398959        -0.690762         0.769070
