19
Iteration:  3641
 O         0.382388        -0.277239         0.405507
 C        -0.713695         0.541821         0.708977
 C        -0.346124         1.728930         1.652724
 C        -1.935251         2.015839         1.197256
 C        -2.128504         3.414727         0.618442
 C        -1.269184         2.983524        -0.631529
 C        -1.646740         1.395699        -0.189837
 O        -2.675757         1.158198         1.906872
 C        -1.944766        -0.028172         1.652209
 H         0.208740        -0.827829        -0.339190
 H        -0.182130         1.596661         2.726536
 H         0.244557         2.590081         1.162504
 H        -3.218872         3.705727         0.379098
 H        -1.959897         4.314613         1.341691
 H        -1.762297         3.037348        -1.644232
 H        -0.156511         3.171968        -0.556176
 H        -2.563238         0.995354        -0.631077
 H        -1.552628        -0.316785         2.671260
 H        -2.562527        -0.721819         1.156204
