19
Iteration:  3129
 O         0.294387        -0.373388         0.371144
 C        -0.703630         0.486836         0.765749
 C        -0.408919         1.763281         1.673651
 C        -1.866464         2.093742         1.179705
 C        -2.201404         3.506978         0.674882
 C        -1.318320         2.991250        -0.638884
 C        -1.502099         1.463439        -0.176171
 O        -2.675569         1.137198         1.925086
 C        -1.927594        -0.106502         1.504026
 H         0.795790        -0.453043         1.295211
 H        -0.294293         1.667299         2.812580
 H         0.248487         2.492853         1.162831
 H        -3.234297         3.581241         0.350123
 H        -1.768187         4.365390         1.065128
 H        -1.875016         3.130156        -1.514037
 H        -0.246973         3.392615        -0.901473
 H        -2.177339         0.924301        -0.956343
 H        -1.560162        -0.526874         2.470217
 H        -2.664258        -0.916620         1.040011
