19
Iteration:  2906charge 0 multiplicity 1
 O         0.271879        -0.368848         0.358604
 C        -0.694061         0.593425         0.762442
 C        -0.474126         1.787718         1.772769
 C        -1.899445         2.053258         1.216115
 C        -2.196310         3.464899         0.623494
 C        -1.224687         2.960810        -0.537396
 C        -1.444504         1.464588        -0.214581
 O        -2.697526         1.141343         1.878774
 C        -1.860266        -0.075012         1.522771
 H        -0.188696        -1.137318        -0.220277
 H        -0.405249         1.461909         2.833250
 H         0.265283         2.481155         1.581669
 H        -3.230951         3.569704         0.310293
 H        -2.079720         4.312098         1.157441
 H        -1.698405         3.101120        -1.593000
 H        -0.306137         3.437242        -0.502172
 H        -2.195459         0.931615        -0.892632
 H        -1.377457        -0.545695         2.348353
 H        -2.462683        -0.696071         0.797267
