19
Iteration:  3197
 O         0.298667        -0.325579         0.201450
 C        -0.694696         0.566674         0.826607
 C        -0.403844         1.768050         1.771514
 C        -1.877763         2.043945         1.173341
 C        -2.225911         3.480767         0.527971
 C        -1.237200         2.958976        -0.635847
 C        -1.514940         1.439790        -0.127447
 O        -2.692227         1.164694         1.924618
 C        -1.924608        -0.087478         1.643980
 H         0.461605        -1.023034         0.846346
 H        -0.389282         1.520404         2.850348
 H         0.250309         2.463128         1.302186
 H        -3.231093         3.380252         0.321913
 H        -2.068168         4.319467         1.186308
 H        -1.485584         3.268619        -1.721694
 H        -0.304671         3.477662        -0.568137
 H        -2.252525         0.878034        -0.681323
 H        -1.533828        -0.664254         2.533857
 H        -2.616018        -0.821109         1.106091
