19
Iteration:  1183charge 0 multiplicity 1
 O         0.254447        -0.330714         0.310891
 C        -0.688131         0.565403         0.745980
 C        -0.438083         1.802245         1.635912
 C        -1.841927         2.133142         1.240166
 C        -2.138478         3.505047         0.595437
 C        -1.317003         2.876778        -0.575703
 C        -1.549931         1.457170        -0.159775
 O        -2.683221         1.095355         1.945715
 C        -1.925760        -0.094112         1.528899
 H         0.649493        -0.711577         1.042513
 H        -0.185564         1.538070         2.715519
 H         0.409000         2.477704         1.380505
 H        -3.292006         3.570841         0.377044
 H        -1.824923         4.471622         1.106061
 H        -1.658875         3.009581        -1.618798
 H        -0.228045         3.249086        -0.419553
 H        -2.357504         0.933124        -0.687559
 H        -1.461463        -0.645913         2.365103
 H        -2.417881        -0.804290         0.859215
