19
Iteration:  3386
 O         0.425139        -0.308933         0.375973
 C        -0.743624         0.525530         0.741035
 C        -0.440948         1.716668         1.748272
 C        -1.906233         2.073977         1.198311
 C        -2.111803         3.504257         0.626199
 C        -1.316809         2.947425        -0.591637
 C        -1.559172         1.493892        -0.195713
 O        -2.726862         1.149877         1.866597
 C        -1.917894        -0.077177         1.566777
 H         0.193449        -1.310536         0.289662
 H        -0.467665         1.496691         2.817437
 H         0.317336         2.264059         1.257975
 H        -3.132414         3.592736         0.410999
 H        -1.714871         4.428388         1.139205
 H        -1.856833         3.154569        -1.582155
 H        -0.286168         3.217593        -0.803775
 H        -2.285748         0.980868        -0.760480
 H        -1.477877        -0.413260         2.576234
 H        -2.515812        -0.805974         1.016718
