19
Iteration:  3357
 O         0.368183        -0.321213         0.412737
 C        -0.762607         0.567457         0.729845
 C        -0.408290         1.782196         1.668027
 C        -1.895578         2.026603         1.206565
 C        -2.137594         3.448945         0.603301
 C        -1.245967         2.951776        -0.589441
 C        -1.516125         1.476954        -0.169213
 O        -2.746421         1.132607         1.926093
 C        -1.940763        -0.073835         1.583353
 H         0.164124        -0.801696        -0.353386
 H        -0.336654         1.736209         2.799659
 H         0.340211         2.294048         1.094292
 H        -3.269545         3.587166         0.496222
 H        -1.877319         4.406307         1.047091
 H        -1.638391         3.187546        -1.506274
 H        -0.091789         3.190808        -0.569940
 H        -2.278502         0.931386        -0.827719
 H        -1.637660        -0.580444         2.441785
 H        -2.453694        -0.823810         0.936706
