19
Iteration:  1604
 O         0.238725        -0.364710         0.224106
 C        -0.698178         0.639813         0.772011
 C        -0.436652         1.785974         1.795200
 C        -1.871110         2.041625         1.228529
 C        -2.173011         3.440957         0.609878
 C        -1.304295         2.918274        -0.591627
 C        -1.476345         1.522180        -0.110926
 O        -2.698991         1.087406         1.874888
 C        -1.875174        -0.021152         1.527169
 H         0.036277        -1.128685         0.725293
 H        -0.094066         1.634022         2.807181
 H         0.412361         2.430878         1.403310
 H        -3.180146         3.550242         0.365720
 H        -1.841331         4.317749         1.244287
 H        -1.617549         3.123421        -1.574001
 H        -0.248540         3.146101        -0.425764
 H        -2.221721         1.017130        -0.658452
 H        -1.441900        -0.631250         2.311513
 H        -2.440424        -0.682678         0.809407
