19
Iteration:  1430charge 0 multiplicity 1
 O         0.243936        -0.344951         0.272921
 C        -0.680578         0.608149         0.769608
 C        -0.395169         1.789226         1.766400
 C        -1.893731         2.079767         1.184328
 C        -2.123645         3.468881         0.615528
 C        -1.361194         2.944726        -0.660078
 C        -1.495894         1.453572        -0.249626
 O        -2.672560         1.092583         2.026716
 C        -1.912250        -0.081914         1.533490
 H         0.311838        -1.023194         1.081279
 H        -0.487418         1.409438         2.728371
 H         0.378585         2.619941         1.541163
 H        -3.163937         3.678638         0.351096
 H        -1.651104         4.414472         1.213275
 H        -1.703964         3.131071        -1.646084
 H        -0.238560         3.294813        -0.693506
 H        -2.221226         0.888560        -0.870111
 H        -1.532734        -0.487426         2.441326
 H        -2.500745        -0.767511         0.901088
