19
Iteration:  1976
 O         0.231296        -0.424892         0.427022
 C        -0.667174         0.599506         0.717748
 C        -0.426308         1.736633         1.617418
 C        -1.947701         2.025302         1.218243
 C        -2.152081         3.401834         0.619620
 C        -1.266019         3.002849        -0.563386
 C        -1.547673         1.495546        -0.167195
 O        -2.714679         1.150202         1.922185
 C        -1.839705        -0.065385         1.491241
 H         1.048594        -0.051547         0.455933
 H        -0.232119         1.362811         2.713418
 H         0.259250         2.598743         1.365194
 H        -3.239103         3.602683         0.467579
 H        -1.982247         4.438683         1.254733
 H        -1.637662         3.346725        -1.585840
 H        -0.142939         3.216627        -0.457596
 H        -2.332872         1.101976        -0.789977
 H        -1.661186        -0.690524         2.449700
 H        -2.208052        -0.625118         0.697249
