19
Iteration:   184charge 0 multiplicity 1
 O         0.317313        -0.325379         0.296898
 C        -0.715265         0.531965         0.719117
 C        -0.423828         1.680863         1.600533
 C        -1.908335         2.063737         1.170238
 C        -2.217953         3.437358         0.604677
 C        -1.259992         2.966769        -0.625244
 C        -1.515727         1.434705        -0.239190
 O        -2.679325         1.198870         2.031801
 C        -1.912700        -0.034582         1.680427
 H         0.705813        -0.797495         1.111223
 H        -0.197777         1.488933         2.749530
 H         0.251886         2.451423         1.318201
 H        -3.273199         3.480255         0.239655
 H        -2.078504         4.345806         1.210219
 H        -1.599744         3.265968        -1.600260
 H        -0.178938         3.313966        -0.587898
 H        -2.251396         0.988496        -0.886046
 H        -1.456577        -0.645639         2.561609
 H        -2.699796        -0.566839         1.055331
