19
Iteration:  2812charge 0 multiplicity 1
 O         0.316773        -0.308183         0.282190
 C        -0.683631         0.530044         0.826349
 C        -0.494311         1.777763         1.765184
 C        -1.964907         2.075014         1.094383
 C        -2.073036         3.499911         0.640760
 C        -1.212491         2.904284        -0.541393
 C        -1.482053         1.456185        -0.099079
 O        -2.769191         1.071465         1.890099
 C        -1.881869        -0.075989         1.563666
 H         0.050256        -0.514347        -0.543949
 H        -0.278990         1.610690         2.886621
 H         0.211598         2.474161         1.353285
 H        -3.176965         3.725187         0.337337
 H        -1.859578         4.548426         1.087565
 H        -1.751606         2.976481        -1.508246
 H        -0.194198         3.358547        -0.574740
 H        -2.124122         1.004964        -0.822555
 H        -1.600896        -0.556673         2.505536
 H        -2.543156        -0.582692         0.890180
