19
Iteration:  1238
 O         0.231022        -0.400096         0.268112
 C        -0.698033         0.578573         0.750613
 C        -0.449633         1.825394         1.721665
 C        -1.952686         2.102616         1.207921
 C        -2.251408         3.421825         0.629196
 C        -1.210659         2.912150        -0.587578
 C        -1.548238         1.475515        -0.208942
 O        -2.631747         1.152599         1.937683
 C        -1.828303        -0.022489         1.573882
 H         0.609073        -0.953449         0.933966
 H        -0.331413         1.459393         2.812428
 H         0.345144         2.417265         1.328720
 H        -3.322242         3.503204         0.181319
 H        -1.924890         4.249407         1.332523
 H        -1.416028         3.126557        -1.631670
 H        -0.183224         3.334796        -0.567060
 H        -2.274555         0.900216        -0.776949
 H        -1.405287        -0.640389         2.359780
 H        -2.437154        -0.687015         1.049793
