19
Iteration:  4462charge 0 multiplicity 1
 O         0.184908        -0.322481         0.295567
 C        -0.659269         0.594763         0.776239
 C        -0.456209         1.849034         1.663494
 C        -1.862773         2.101997         1.192916
 C        -2.126887         3.466674         0.513838
 C        -1.327651         2.813513        -0.645885
 C        -1.586757         1.361001        -0.105537
 O        -2.594265         1.149800         2.007998
 C        -1.856197        -0.086294         1.583626
 H         0.997853        -0.308407         0.695893
 H        -0.204879         1.678229         2.754116
 H         0.263350         2.578711         1.299641
 H        -3.162567         3.536892         0.269697
 H        -1.871264         4.438441         1.095163
 H        -1.908384         2.963483        -1.552175
 H        -0.296902         3.236932        -0.802993
 H        -2.516236         0.872430        -0.532636
 H        -1.685713        -0.517689         2.623579
 H        -2.572096        -0.658060         0.908381
