19
Iteration:   878
 O         0.357776        -0.293073         0.322933
 C        -0.747131         0.534407         0.711601
 C        -0.466838         1.712968         1.623497
 C        -1.905924         2.083169         1.166396
 C        -2.156473         3.451210         0.652020
 C        -1.344427         2.985109        -0.669987
 C        -1.474215         1.507555        -0.226110
 O        -2.695933         1.152103         2.041960
 C        -1.880481        -0.152005         1.593102
 H         0.432262        -0.929395         0.987350
 H        -0.268403         1.478963         2.691875
 H         0.446226         2.244308         1.214708
 H        -3.248010         3.701011         0.520129
 H        -1.748473         4.361556         1.140248
 H        -1.635422         3.177541        -1.664385
 H        -0.277227         3.560868        -0.582413
 H        -2.390495         0.850587        -0.681183
 H        -1.490981        -0.598326         2.526510
 H        -2.717920        -0.788382         1.159613
