19
Iteration:  1965charge 0 multiplicity 1
 O         0.222257        -0.437528         0.450319
 C        -0.681353         0.604732         0.747490
 C        -0.400065         1.824196         1.648780
 C        -1.981381         2.053965         1.174068
 C        -2.165459         3.484437         0.617150
 C        -1.225353         3.008568        -0.558457
 C        -1.597046         1.514138        -0.207623
 O        -2.673809         1.010873         1.947027
 C        -1.889027        -0.087093         1.482134
 H         1.138134        -0.148610         0.368471
 H         0.027188         1.617837         2.715195
 H         0.235084         2.531098         1.113535
 H        -3.145993         3.688361         0.144703
 H        -1.658452         4.273505         1.346084
 H        -1.519371         3.369876        -1.590644
 H        -0.146676         3.337634        -0.435542
 H        -2.396304         1.020185        -0.740888
 H        -1.547028        -0.745170         2.370428
 H        -2.511707        -0.694024         0.874169
