19
Iteration:   284
 O         0.280521        -0.344209         0.268739
 C        -0.719160         0.518492         0.697000
 C        -0.339407         1.738127         1.630407
 C        -1.930337         2.033121         1.229820
 C        -2.209964         3.424032         0.535747
 C        -1.263848         2.987066        -0.544540
 C        -1.525442         1.460654        -0.207790
 O        -2.711066         1.194493         2.010332
 C        -1.910879        -0.063079         1.640401
 H         0.864159        -0.370467         1.145890
 H        -0.098100         1.504304         2.653965
 H         0.310766         2.321128         1.093252
 H        -3.240778         3.535275         0.184889
 H        -1.933070         4.349604         1.086089
 H        -1.591996         3.152885        -1.602744
 H        -0.301235         3.200674        -0.316412
 H        -2.240688         0.994464        -0.813152
 H        -1.588441        -0.463086         2.668163
 H        -2.523566        -0.741213         1.019475
