19
Iteration:  4006charge 0 multiplicity 1
 O         0.313694        -0.424347         0.507165
 C        -0.699990         0.543719         0.677048
 C        -0.395682         1.732885         1.597831
 C        -1.873666         2.099525         1.206710
 C        -2.264175         3.471319         0.629152
 C        -1.324990         2.952476        -0.674252
 C        -1.487957         1.535324        -0.233104
 O        -2.654083         1.125953         2.008209
 C        -1.910572        -0.026328         1.586139
 H         0.390346        -0.648582        -0.397697
 H        -0.297897         1.390849         2.600148
 H         0.292088         2.444275         1.201273
 H        -3.347698         3.537441         0.376605
 H        -1.925534         4.283726         1.217193
 H        -1.757919         3.252009        -1.583121
 H        -0.321202         3.430093        -0.508649
 H        -2.272203         1.002090        -0.764801
 H        -1.215894        -0.505737         2.369925
 H        -2.627022        -0.850997         1.139788
