19
Iteration:  1282
 O         0.343322        -0.311706         0.315771
 C        -0.688000         0.505354         0.763897
 C        -0.394123         1.724039         1.665268
 C        -1.926147         2.073104         1.170511
 C        -2.161731         3.458110         0.659181
 C        -1.317794         2.944325        -0.634848
 C        -1.547741         1.460614        -0.155441
 O        -2.700938         1.212719         1.952917
 C        -1.911286        -0.106906         1.516486
 H         0.541278        -0.672850         1.139005
 H        -0.372395         1.515281         2.820590
 H         0.375986         2.347643         1.336898
 H        -3.262035         3.710808         0.402914
 H        -1.669905         4.233975         1.302886
 H        -1.844015         3.089727        -1.585032
 H        -0.315541         3.303955        -0.829264
 H        -2.362473         1.041105        -0.745625
 H        -1.623836        -0.595591         2.443311
 H        -2.398222        -0.821794         0.950771
