19
Iteration:  2331charge 0 multiplicity 1
 O         0.299927        -0.409569         0.378023
 C        -0.699756         0.532378         0.847590
 C        -0.452301         1.739725         1.740077
 C        -1.896574         2.098525         1.169257
 C        -2.132507         3.498867         0.656745
 C        -1.249494         3.023535        -0.637839
 C        -1.541280         1.540616        -0.180120
 O        -2.701199         1.095773         1.884012
 C        -1.902469        -0.141545         1.503587
 H         0.627452        -0.068532        -0.399681
 H        -0.144470         1.549196         2.731868
 H         0.298214         2.424326         1.383103
 H        -3.262804         3.609778         0.519985
 H        -2.024475         4.238604         1.376468
 H        -1.623207         3.232332        -1.644008
 H        -0.263472         3.324230        -0.574980
 H        -2.379061         1.038032        -0.711040
 H        -1.782855        -0.720990         2.466095
 H        -2.546732        -0.846929         0.832885
