19
Iteration:  2164charge 0 multiplicity 1
 O         0.289137        -0.388363         0.484298
 C        -0.724047         0.483436         0.684154
 C        -0.428636         1.760820         1.555099
 C        -1.892522         2.073210         1.169352
 C        -2.190287         3.452268         0.685292
 C        -1.233163         2.958136        -0.461261
 C        -1.543247         1.467124        -0.220363
 O        -2.661117         1.152598         1.903024
 C        -1.930173        -0.070540         1.496885
 H         0.899457         0.021951        -0.193011
 H        -0.520652         1.522657         2.619334
 H         0.404589         2.450434         1.306362
 H        -3.210065         3.768078         0.279849
 H        -2.090866         4.254892         1.447031
 H        -1.597504         3.288345        -1.398346
 H        -0.170004         3.280961        -0.389478
 H        -2.382523         1.223332        -0.828098
 H        -1.454547        -0.592714         2.478756
 H        -2.637601        -0.678813         0.935326
