19
Iteration:  2598
 O         0.233432        -0.448153         0.440311
 C        -0.670073         0.553277         0.746520
 C        -0.388475         1.776091         1.699810
 C        -1.811608         2.076074         1.191493
 C        -2.187838         3.410249         0.718980
 C        -1.372809         3.002135        -0.592070
 C        -1.452243         1.495141        -0.213815
 O        -2.740176         1.155480         1.797316
 C        -1.892623        -0.046472         1.516102
 H         1.037307        -0.087298         0.273684
 H        -0.189555         1.528000         2.784433
 H         0.306862         2.496918         1.347066
 H        -3.238591         3.449855         0.449063
 H        -1.878638         4.238453         1.424416
 H        -1.867696         3.153983        -1.506641
 H        -0.273872         3.268997        -0.388332
 H        -2.213259         0.852598        -0.808279
 H        -1.743321        -0.561648         2.379749
 H        -2.542698        -0.589994         0.797622
