19
Iteration:  4224charge 0 multiplicity 1
 O         0.350894        -0.357550         0.403664
 C        -0.709421         0.552873         0.719453
 C        -0.433995         1.745309         1.607904
 C        -1.868565         2.088918         1.242664
 C        -2.176954         3.459066         0.527033
 C        -1.348606         2.973748        -0.626350
 C        -1.570344         1.463232        -0.145098
 O        -2.650546         1.106119         2.005186
 C        -1.887784        -0.013383         1.609560
 H         0.246288        -1.335615         0.144724
 H        -0.018566         1.648872         2.672412
 H         0.234828         2.509479         1.176868
 H        -3.280340         3.468957         0.008658
 H        -2.068029         4.471736         0.884050
 H        -1.699352         3.028410        -1.639481
 H        -0.241100         3.278164        -0.639837
 H        -2.415691         1.083674        -0.652809
 H        -1.528705        -0.407455         2.603626
 H        -2.498495        -0.689917         1.047854
