19
Iteration:  4215charge 0 multiplicity 1
 O         0.375776        -0.363540         0.385444
 C        -0.730197         0.561981         0.716784
 C        -0.425362         1.789140         1.628435
 C        -1.938151         2.107315         1.246643
 C        -2.207326         3.520510         0.506099
 C        -1.272699         2.931438        -0.645257
 C        -1.626287         1.448777        -0.152720
 O        -2.653181         1.160042         2.024580
 C        -1.801091        -0.087634         1.580168
 H        -0.138436        -1.243569         0.443909
 H        -0.472358         1.516858         2.673868
 H         0.344073         2.381928         1.151678
 H        -3.264306         3.386358         0.336372
 H        -1.934222         4.431991         0.995861
 H        -1.709932         3.258411        -1.594653
 H        -0.217930         3.187186        -0.623083
 H        -2.345629         0.878729        -0.687979
 H        -1.329688        -0.651581         2.425156
 H        -2.489035        -0.871905         1.121864
