19
Iteration:  3400charge 0 multiplicity 1
 O         0.304643        -0.285988         0.400876
 C        -0.657242         0.550710         0.747023
 C        -0.496425         1.747902         1.633483
 C        -1.836204         2.103067         1.212811
 C        -2.146218         3.461198         0.659660
 C        -1.287682         2.951712        -0.679876
 C        -1.498607         1.410598        -0.157218
 O        -2.741029         1.101911         1.904085
 C        -1.875060        -0.052731         1.538502
 H        -0.009593        -1.141759         0.514679
 H        -0.358640         1.513251         2.730767
 H         0.260396         2.464683         1.570969
 H        -3.100871         3.831460         0.412648
 H        -1.770835         4.245179         1.274425
 H        -1.811845         3.198971        -1.550623
 H        -0.212478         3.449797        -0.570539
 H        -2.374402         1.026952        -0.702467
 H        -1.560703        -0.699970         2.360233
 H        -2.521919        -0.741909         0.986033
