19
Iteration:  2129
 O         0.199807        -0.464002         0.357545
 C        -0.688257         0.566095         0.755422
 C        -0.435709         1.789764         1.706549
 C        -1.861857         2.067233         1.247864
 C        -2.191532         3.507247         0.574605
 C        -1.295777         3.043821        -0.610348
 C        -1.441925         1.537605        -0.164021
 O        -2.719346         1.041575         1.958139
 C        -1.916921        -0.084005         1.493453
 H         1.190676        -0.216475         0.361304
 H        -0.461494         1.595748         2.775437
 H         0.386271         2.588473         1.492117
 H        -3.192539         3.576874         0.225964
 H        -1.648766         4.282035         1.240553
 H        -1.723629         3.161831        -1.627753
 H        -0.199462         3.461015        -0.669554
 H        -2.268099         1.122994        -0.727181
 H        -1.408338        -0.886422         2.365458
 H        -2.404003        -0.798207         0.834024
