19
Iteration:  2789
 O         0.303272        -0.243219         0.325830
 C        -0.701380         0.529946         0.710346
 C        -0.446319         1.749817         1.765779
 C        -1.865405         2.077671         1.289452
 C        -2.103149         3.385781         0.619719
 C        -1.213053         2.919146        -0.616613
 C        -1.526608         1.471051        -0.144453
 O        -2.789001         1.083312         1.846378
 C        -1.919339        -0.046752         1.593489
 H         0.125640        -0.693142        -0.613091
 H        -0.304269         1.432337         2.886407
 H         0.254221         2.488280         1.544475
 H        -3.243472         3.537085         0.259533
 H        -2.000223         4.448731         0.981553
 H        -1.189441         3.400343        -1.643249
 H        -0.221626         3.148341        -0.231144
 H        -2.372389         1.136992        -0.724253
 H        -1.430537        -0.359070         2.463865
 H        -2.559913        -0.754528         1.071342
