19
Iteration:  4056
 O         0.286646        -0.386500         0.327747
 C        -0.703840         0.549794         0.728119
 C        -0.400904         1.784283         1.732498
 C        -1.850618         2.059677         1.249870
 C        -2.148009         3.498227         0.558702
 C        -1.333075         2.967098        -0.688127
 C        -1.576738         1.388007        -0.172148
 O        -2.738478         1.157469         1.948092
 C        -1.878932        -0.066024         1.656638
 H         1.232566         0.110967         0.238432
 H        -0.262743         1.462319         2.778663
 H         0.369299         2.392098         1.132250
 H        -3.221641         3.636517         0.334987
 H        -1.658869         4.445709         1.064980
 H        -2.031577         2.953035        -1.653009
 H        -0.358639         3.404275        -0.626568
 H        -2.307009         0.749564        -0.769308
 H        -1.488350        -0.573428         2.511669
 H        -2.360560        -0.823366         1.151613
