19
Iteration:  3133charge 0 multiplicity 1
 O         0.310245        -0.405355         0.381095
 C        -0.734059         0.531629         0.749248
 C        -0.408796         1.767326         1.690536
 C        -1.900145         2.138386         1.166199
 C        -2.202240         3.497597         0.636131
 C        -1.305786         2.994778        -0.616756
 C        -1.498401         1.440155        -0.189902
 O        -2.670685         1.125108         1.919973
 C        -1.920940        -0.123269         1.518880
 H         0.754485        -0.591682         1.149203
 H        -0.182869         1.806851         2.760892
 H         0.312633         2.364654         1.195374
 H        -3.239962         3.535386         0.402627
 H        -1.731162         4.382795         1.139368
 H        -1.978722         3.223845        -1.585555
 H        -0.299912         3.395438        -0.633647
 H        -2.253495         0.973510        -0.745110
 H        -1.378593        -0.536660         2.434804
 H        -2.608182        -0.764471         0.970541
