19
Iteration:  3434
 O         0.344818        -0.397034         0.393504
 C        -0.669606         0.494832         0.772701
 C        -0.440722         1.812008         1.610891
 C        -1.895615         2.082124         1.218245
 C        -2.252555         3.512861         0.590748
 C        -1.246200         3.012696        -0.561718
 C        -1.494704         1.454492        -0.150536
 O        -2.703393         1.123316         1.943139
 C        -1.887880        -0.078822         1.525055
 H        -0.155630        -1.269957         0.361565
 H        -0.339222         1.605749         2.683133
 H         0.273203         2.438670         1.068361
 H        -3.246993         3.526042         0.098453
 H        -2.057859         4.309868         1.252437
 H        -1.494875         3.268913        -1.578575
 H        -0.212156         3.496475        -0.383739
 H        -2.335551         1.035734        -0.798144
 H        -1.529263        -0.598280         2.390504
 H        -2.527072        -0.646608         0.821492
