19
Iteration:   393
 O         0.281843        -0.349776         0.254121
 C        -0.706830         0.540786         0.827055
 C        -0.441896         1.748009         1.690089
 C        -1.932468         2.093839         1.213938
 C        -2.209677         3.485471         0.510421
 C        -1.279837         3.012733        -0.595657
 C        -1.530260         1.408855        -0.152639
 O        -2.677090         1.143937         2.020641
 C        -1.830454        -0.106338         1.564898
 H         0.577643        -1.060541         0.936140
 H        -0.130342         1.587593         2.751935
 H         0.370509         2.397674         1.274732
 H        -3.196168         3.710766         0.136910
 H        -1.842691         4.408035         1.032304
 H        -1.813440         3.114469        -1.641286
 H        -0.277786         3.455592        -0.726696
 H        -2.273565         0.904812        -0.866310
 H        -1.378422        -0.571077         2.477509
 H        -2.553082        -0.585087         0.894336
