19
Iteration:  4302charge 0 multiplicity 1
 O         0.225478        -0.409533         0.349578
 C        -0.748274         0.621681         0.818805
 C        -0.410113         1.811192         1.588604
 C        -1.884892         2.112304         1.190885
 C        -2.167382         3.495531         0.518524
 C        -1.321461         2.890515        -0.608310
 C        -1.603466         1.412939        -0.175902
 O        -2.614298         1.072240         1.969978
 C        -1.812857        -0.057813         1.654871
 H         1.036720        -0.160004         0.650439
 H        -0.246554         1.719172         2.692164
 H         0.300783         2.522029         1.114510
 H        -3.369377         3.684470         0.232091
 H        -1.779214         4.455395         0.944654
 H        -1.807844         3.169792        -1.600747
 H        -0.249503         3.148942        -0.656952
 H        -2.480802         0.994454        -0.571208
 H        -1.382029        -0.551878         2.529631
 H        -2.438673        -0.760813         1.065531
