19
Iteration:   589
 O         0.253733        -0.342118         0.316255
 C        -0.735245         0.541542         0.784024
 C        -0.376088         1.787258         1.688274
 C        -1.850720         2.100533         1.185188
 C        -2.183984         3.489498         0.568373
 C        -1.337326         2.954514        -0.607018
 C        -1.526458         1.447924        -0.180500
 O        -2.658340         1.114688         1.945017
 C        -1.853159        -0.120676         1.580821
 H         0.723058        -0.875293         1.081291
 H        -0.375705         1.575325         2.701309
 H         0.395513         2.620160         1.389882
 H        -3.214039         3.611730         0.271329
 H        -1.847501         4.476507         1.029768
 H        -1.961935         3.100314        -1.570240
 H        -0.333895         3.313954        -0.551208
 H        -2.433399         0.958012        -0.796881
 H        -1.681204        -0.633679         2.625845
 H        -2.455218        -0.647460         0.766622
