19
Iteration:  2514
 O         0.307130        -0.342267         0.277846
 C        -0.652466         0.553490         0.814992
 C        -0.430105         1.760644         1.773178
 C        -1.894731         2.073801         1.268401
 C        -2.158898         3.417666         0.577620
 C        -1.260508         2.953101        -0.573561
 C        -1.433141         1.497625        -0.110620
 O        -2.792153         1.132581         1.858670
 C        -1.961207        -0.130151         1.558477
 H         0.388938         0.121018        -0.690832
 H        -0.185627         1.443271         2.768304
 H         0.383323         2.429434         1.354399
 H        -3.188519         3.675257         0.175055
 H        -1.845760         4.303031         1.019977
 H        -1.338100         3.237551        -1.604051
 H        -0.317954         3.318265        -0.540668
 H        -2.127282         0.926087        -0.591462
 H        -2.002736        -0.519430         2.643326
 H        -2.531204        -0.829820         0.946349
