19
Iteration:  3724charge 0 multiplicity 1
 O         0.285449        -0.436812         0.354227
 C        -0.691948         0.550888         0.744268
 C        -0.252974         1.673616         1.585896
 C        -1.938722         2.076465         1.158260
 C        -2.306276         3.418360         0.563319
 C        -1.325280         3.016589        -0.599106
 C        -1.498352         1.488570        -0.207948
 O        -2.668549         1.183217         1.992752
 C        -1.931221        -0.023908         1.664911
 H         1.102419        -0.085260         0.683365
 H        -0.350535         1.579995         2.679191
 H         0.515006         2.443640         1.300763
 H        -3.278718         3.490020         0.245578
 H        -2.015632         4.296695         1.238326
 H        -1.751208         3.123219        -1.564667
 H        -0.274009         3.488043        -0.546897
 H        -2.296959         0.941519        -0.782945
 H        -1.482500        -0.592723         2.495403
 H        -2.718922        -0.770140         1.144724
