19
Iteration:  4358charge 0 multiplicity 1
 O         0.276370        -0.317724         0.266328
 C        -0.723687         0.565988         0.792847
 C        -0.363444         1.791538         1.680843
 C        -1.850813         2.127624         1.174518
 C        -2.257000         3.450286         0.539816
 C        -1.328682         2.866884        -0.722851
 C        -1.514743         1.420154        -0.096092
 O        -2.598117         1.183611         2.000158
 C        -1.902825        -0.090007         1.639536
 H         0.394525        -1.081709         0.933204
 H        -0.354821         1.767244         2.753369
 H         0.216611         2.603547         1.253000
 H        -3.452116         3.487680         0.378204
 H        -1.798048         4.371220         1.042515
 H        -1.802689         3.024194        -1.744313
 H        -0.337346         3.169335        -0.787956
 H        -2.339513         0.867253        -0.489054
 H        -1.429197        -0.610824         2.434306
 H        -2.665013        -0.767840         1.217334
