19
Iteration:  4121
 O         0.221986        -0.416276         0.317641
 C        -0.650093         0.596109         0.769629
 C        -0.385574         1.809489         1.666126
 C        -1.913434         2.107138         1.166174
 C        -2.270434         3.415682         0.580799
 C        -1.258256         2.954064        -0.708002
 C        -1.521742         1.449888        -0.152515
 O        -2.624639         1.104663         2.057450
 C        -1.886061        -0.025931         1.590957
 H         0.712318        -0.660539         1.083614
 H        -0.239646         1.609685         2.733956
 H         0.217911         2.573046         1.092875
 H        -3.358489         3.511739         0.304085
 H        -1.849904         4.257640         1.289372
 H        -1.801318         3.081094        -1.735494
 H        -0.329366         3.502553        -0.753532
 H        -2.267574         0.920550        -0.898475
 H        -1.453374        -0.663102         2.344392
 H        -2.576428        -0.558099         0.943290
