19
Iteration:  3867
 O         0.307855        -0.384540         0.388099
 C        -0.682065         0.546683         0.821618
 C        -0.427225         1.751083         1.684669
 C        -1.866090         2.106749         1.129710
 C        -2.205801         3.481845         0.528409
 C        -1.360567         3.013447        -0.607847
 C        -1.505277         1.456289        -0.156000
 O        -2.627516         1.116842         1.947631
 C        -1.872653        -0.076493         1.580409
 H        -0.205087        -1.122679        -0.071783
 H        -0.389717         1.667059         2.810958
 H         0.326737         2.433414         1.267291
 H        -3.266019         3.484246         0.409196
 H        -1.919546         4.431530         1.103825
 H        -1.906220         3.238462        -1.536572
 H        -0.316936         3.355618        -0.427789
 H        -2.415765         1.077708        -0.702578
 H        -1.398577        -0.552759         2.406328
 H        -2.365956        -0.815348         0.962062
