19
Iteration:  3531charge 0 multiplicity 1
 O         0.292728        -0.409430         0.361117
 C        -0.712054         0.568413         0.681898
 C        -0.467275         1.758187         1.711507
 C        -1.947167         2.083132         1.179047
 C        -2.154201         3.482598         0.605761
 C        -1.288857         2.973182        -0.628107
 C        -1.538646         1.438235        -0.162127
 O        -2.670965         1.113720         1.945060
 C        -1.905240        -0.073528         1.585108
 H         1.169227         0.165918         0.400989
 H        -0.266732         1.450372         2.774364
 H         0.368196         2.432625         1.323351
 H        -3.160669         3.645476         0.244736
 H        -1.713568         4.291531         1.277108
 H        -1.617062         3.329648        -1.629866
 H        -0.125716         3.146840        -0.688063
 H        -2.394174         1.072284        -0.685342
 H        -1.488323        -0.426831         2.629008
 H        -2.581188        -0.877490         1.137693
