19
Iteration:  3710charge 0 multiplicity 1
 O         0.231093        -0.460996         0.360484
 C        -0.710375         0.528308         0.733511
 C        -0.395142         1.817257         1.698058
 C        -1.832344         2.087146         1.226091
 C        -2.256184         3.419840         0.559936
 C        -1.337241         2.956465        -0.603187
 C        -1.568020         1.460264        -0.145667
 O        -2.607597         1.173934         1.927752
 C        -1.858328        -0.021858         1.567881
 H         1.224634        -0.179122         0.577023
 H        -0.041980         1.464154         2.648198
 H         0.371475         2.308793         1.179777
 H        -3.370150         3.410746         0.306532
 H        -2.149436         4.364931         0.963929
 H        -1.720903         3.195935        -1.588845
 H        -0.354170         3.338099        -0.439490
 H        -2.428709         1.093745        -0.790446
 H        -1.609448        -0.410989         2.515305
 H        -2.423825        -0.698207         0.939652
