19
Iteration:  3264
 O         0.309647        -0.428911         0.375984
 C        -0.661672         0.514913         0.686652
 C        -0.507331         1.774139         1.656903
 C        -1.919871         2.095952         1.168037
 C        -2.128335         3.474843         0.643888
 C        -1.332582         3.039832        -0.583169
 C        -1.531077         1.401271        -0.197775
 O        -2.688174         1.158822         1.939097
 C        -1.893668        -0.044031         1.584236
 H         1.113466        -0.334820         0.999436
 H        -0.241808         1.548918         2.672790
 H         0.231329         2.459535         1.138253
 H        -3.103473         3.658485         0.356472
 H        -1.850435         4.319635         1.273436
 H        -1.659453         2.991058        -1.707390
 H        -0.322761         3.331230        -0.632778
 H        -2.256902         0.962611        -0.841340
 H        -1.668609        -0.650443         2.517060
 H        -2.510313        -0.780714         1.037277
