19
Iteration:  4593charge 0 multiplicity 1
 O         0.337114        -0.267731         0.287753
 C        -0.727913         0.550623         0.787034
 C        -0.359197         1.788816         1.560860
 C        -1.820593         2.116446         1.162136
 C        -2.227734         3.457308         0.593925
 C        -1.291128         2.872597        -0.654824
 C        -1.630621         1.371404        -0.122776
 O        -2.682957         1.171937         1.978614
 C        -1.911363        -0.074111         1.694730
 H         0.368177        -1.112854         0.932396
 H        -0.052657         1.609342         2.611089
 H         0.370734         2.471053         1.150975
 H        -3.238023         3.608987         0.157256
 H        -1.789355         4.519169         1.034017
 H        -1.724761         3.089410        -1.640454
 H        -0.206297         3.130061        -0.725896
 H        -2.506877         0.827428        -0.545613
 H        -1.464338        -0.465538         2.602483
 H        -2.615738        -0.866753         1.267656
