19
Iteration:  2155
 O         0.286512        -0.419763         0.457096
 C        -0.743352         0.540971         0.729001
 C        -0.480714         1.738327         1.575567
 C        -1.939209         2.050031         1.153232
 C        -2.196775         3.504445         0.681255
 C        -1.194266         3.058034        -0.501653
 C        -1.566842         1.480958        -0.230475
 O        -2.606766         1.127874         1.937445
 C        -1.934456        -0.117560         1.549374
 H         1.065864        -0.039228        -0.014405
 H        -0.337425         1.525992         2.673832
 H         0.249728         2.384129         1.166049
 H        -3.248489         3.513592         0.171278
 H        -1.879441         4.280442         1.335378
 H        -1.505542         3.341439        -1.500777
 H        -0.184021         3.330325        -0.494759
 H        -2.221166         1.010320        -0.976955
 H        -1.644151        -0.733160         2.358940
 H        -2.523197        -0.741910         0.862758
