19
Iteration:   741charge 0 multiplicity 1
 O         0.264175        -0.359802         0.306817
 C        -0.672105         0.579441         0.702285
 C        -0.439951         1.745287         1.686414
 C        -1.909055         2.107290         1.149117
 C        -2.157563         3.500182         0.600757
 C        -1.334754         2.966405        -0.569229
 C        -1.561172         1.417926        -0.178342
 O        -2.646670         1.091498         1.975769
 C        -1.867083        -0.065600         1.579794
 H         0.666411        -0.880421         1.129339
 H        -0.595206         1.504778         2.685095
 H         0.298650         2.626783         1.589613
 H        -3.182071         3.708540         0.429148
 H        -1.695518         4.418345         1.069420
 H        -1.706737         3.175544        -1.619512
 H        -0.358694         3.215470        -0.684159
 H        -2.172264         1.010222        -0.834860
 H        -1.431158        -0.536523         2.537291
 H        -2.420902        -0.694223         0.884364
