19
Iteration:  2256charge 0 multiplicity 1
 O         0.296548        -0.407957         0.429123
 C        -0.787460         0.473189         0.698395
 C        -0.409831         1.699363         1.580239
 C        -1.904994         2.080073         1.245444
 C        -2.229577         3.459949         0.665423
 C        -1.201038         3.014725        -0.546445
 C        -1.516429         1.551476        -0.180797
 O        -2.694382         1.120344         1.904274
 C        -1.916488        -0.096072         1.539509
 H         1.148013         0.180646         0.270018
 H        -0.139667         1.572014         2.633878
 H         0.345670         2.340583         0.992096
 H        -3.304974         3.607363         0.205221
 H        -2.097369         4.491162         1.164690
 H        -1.325723         3.451159        -1.541455
 H        -0.174152         3.352751        -0.350772
 H        -2.284947         0.997232        -0.828329
 H        -1.556570        -0.507456         2.398341
 H        -2.676686        -0.817424         1.066434
