19
Iteration:  2568charge 0 multiplicity 1
 O         0.261297        -0.509905         0.482110
 C        -0.720167         0.516483         0.707144
 C        -0.438177         1.785565         1.639194
 C        -1.884340         2.082075         1.145243
 C        -2.170862         3.554134         0.632694
 C        -1.315870         3.129362        -0.611669
 C        -1.503878         1.553251        -0.229436
 O        -2.706666         0.968400         1.961162
 C        -1.881202        -0.061180         1.513296
 H         1.175746        -0.039915         0.735925
 H        -0.214792         1.580945         2.651285
 H         0.399999         2.448911         1.229705
 H        -3.219843         3.816888         0.210644
 H        -1.766758         4.195032         1.370430
 H        -1.673287         3.350916        -1.597387
 H        -0.280714         3.368181        -0.391577
 H        -2.220321         1.044179        -0.802643
 H        -1.531906        -0.742394         2.403095
 H        -2.591559        -0.816809         0.902957
