19
Iteration:  4779charge 0 multiplicity 1
 O         0.281277        -0.351538         0.305491
 C        -0.663755         0.545731         0.749492
 C        -0.324501         1.736582         1.553539
 C        -1.883532         2.065521         1.278189
 C        -2.284095         3.369844         0.476936
 C        -1.340053         2.911884        -0.635125
 C        -1.525240         1.447176        -0.164917
 O        -2.677059         1.252102         2.071640
 C        -1.857051        -0.025916         1.629117
 H         0.552562        -0.984672         1.013548
 H        -0.160652         1.722888         2.622673
 H         0.567674         2.322039         1.213383
 H        -3.351631         3.456386         0.443585
 H        -1.989619         4.258446         0.942758
 H        -1.652265         3.115877        -1.759177
 H        -0.407650         3.526441        -0.588266
 H        -2.351264         0.974987        -0.833943
 H        -1.692691        -0.541207         2.561214
 H        -2.657182        -0.598647         1.064981
