19
Iteration:  1137charge 0 multiplicity 1
 O         0.296480        -0.331636         0.286422
 C        -0.754196         0.469889         0.723749
 C        -0.389626         1.790978         1.612069
 C        -1.900230         2.089282         1.220140
 C        -2.155013         3.481646         0.614359
 C        -1.312605         2.979343        -0.545848
 C        -1.495851         1.439855        -0.197238
 O        -2.698360         1.132454         1.926685
 C        -1.922483        -0.130211         1.635320
 H         0.743571        -0.574523         1.074781
 H        -0.204516         1.831882         2.713055
 H         0.451205         2.445836         1.105651
 H        -3.230679         3.767529         0.352617
 H        -1.679720         4.349482         1.110187
 H        -1.819142         3.182397        -1.405945
 H        -0.239335         3.509831        -0.663389
 H        -2.262739         0.848814        -0.808454
 H        -1.629425        -0.571238         2.600977
 H        -2.558160        -0.787811         1.115755
