19
Iteration:  4165charge 0 multiplicity 1
 O         0.364477        -0.309679         0.285274
 C        -0.704644         0.509664         0.776197
 C        -0.319766         1.788885         1.635601
 C        -1.905579         2.031486         1.243796
 C        -2.201652         3.480677         0.598036
 C        -1.337928         2.890109        -0.675831
 C        -1.492068         1.487495        -0.160646
 O        -2.796380         1.186132         1.958221
 C        -1.878697        -0.077812         1.666231
 H         0.380996        -1.230354         0.681880
 H        -0.110397         1.597478         2.701241
 H         0.369710         2.525073         1.091746
 H        -3.297049         3.612090         0.290719
 H        -1.795088         4.422455         1.170097
 H        -1.791789         2.961012        -1.727531
 H        -0.323747         3.238176        -0.843984
 H        -2.481095         0.982315        -0.570379
 H        -1.582874        -0.387172         2.641828
 H        -2.389577        -0.796994         1.029021
