19
Iteration:  2321charge 0 multiplicity 1
 O         0.230868        -0.439633         0.391658
 C        -0.670201         0.559865         0.842849
 C        -0.364483         1.813519         1.756813
 C        -1.910249         2.087450         1.203174
 C        -2.148967         3.507580         0.666754
 C        -1.324602         3.007228        -0.592532
 C        -1.492784         1.482692        -0.120548
 O        -2.680474         1.047126         1.823899
 C        -1.941227        -0.108355         1.468266
 H         0.653516         0.054648        -0.241911
 H        -0.365409         1.647589         2.798236
 H         0.432925         2.411623         1.266816
 H        -3.177135         3.719067         0.210857
 H        -1.662161         4.351109         1.200718
 H        -1.781255         3.296656        -1.526010
 H        -0.318193         3.332631        -0.688829
 H        -2.298396         0.982358        -0.750804
 H        -1.618165        -0.684465         2.319601
 H        -2.460502        -0.771452         0.634602
