19
Iteration:   508
 O         0.271778        -0.358921         0.247833
 C        -0.614164         0.586391         0.807356
 C        -0.338885         1.780969         1.706081
 C        -1.896368         2.120071         1.274049
 C        -2.121633         3.453938         0.582251
 C        -1.357168         2.961478        -0.640877
 C        -1.543383         1.465680        -0.089588
 O        -2.775720         1.136208         1.885372
 C        -1.909258        -0.133178         1.569848
 H         0.842307        -0.797742         1.007782
 H        -0.033805         1.714437         2.816256
 H         0.315695         2.420108         1.222489
 H        -3.190808         3.387132         0.198870
 H        -1.924957         4.434605         0.984869
 H        -1.875154         3.138948        -1.529569
 H        -0.335570         3.272030        -0.936617
 H        -2.272062         0.913433        -0.579971
 H        -1.599577        -0.622630         2.645876
 H        -2.512184        -0.849795         0.887025
