19
Iteration:  1664charge 0 multiplicity 1
 O         0.313084        -0.371610         0.431865
 C        -0.732330         0.551727         0.639545
 C        -0.409719         1.721984         1.671669
 C        -1.923066         2.074382         1.132797
 C        -2.096365         3.456691         0.706928
 C        -1.281375         3.029390        -0.495504
 C        -1.561982         1.433261        -0.216934
 O        -2.690239         1.148628         1.920212
 C        -1.952647        -0.084817         1.550503
 H         0.946523         0.035153        -0.150742
 H        -0.482159         1.281920         2.653515
 H         0.381628         2.350582         1.281315
 H        -3.224196         3.422161         0.246539
 H        -1.907603         4.258108         1.445479
 H        -1.543966         3.406561        -1.518029
 H        -0.181877         3.257203        -0.494156
 H        -2.401234         0.953577        -0.860944
 H        -1.513802        -0.676006         2.367472
 H        -2.567265        -0.646110         0.895254
