19
Iteration:  3086
 O         0.315048        -0.337161         0.319819
 C        -0.704318         0.564878         0.752870
 C        -0.467910         1.760026         1.670440
 C        -1.922821         2.107588         1.272096
 C        -2.112753         3.531842         0.606347
 C        -1.294217         2.861125        -0.636421
 C        -1.554194         1.474160        -0.135226
 O        -2.714386         1.130945         1.881271
 C        -1.910824        -0.116462         1.569927
 H         1.207348        -0.268333         0.682118
 H        -0.429275         1.510282         2.769749
 H         0.336889         2.476815         1.418545
 H        -3.123433         3.644250         0.337105
 H        -1.768591         4.242912         1.262748
 H        -1.655033         2.965162        -1.636409
 H        -0.170685         3.163090        -0.531752
 H        -2.377138         0.944604        -0.713999
 H        -1.564255        -0.537766         2.526835
 H        -2.483815        -0.770432         0.824445
