19
Iteration:   646charge 0 multiplicity 1
 O         0.255058        -0.311044         0.301343
 C        -0.750485         0.529374         0.811880
 C        -0.396185         1.813946         1.654215
 C        -1.924266         2.030276         1.165806
 C        -2.164337         3.489388         0.620994
 C        -1.277592         2.912203        -0.624174
 C        -1.547610         1.480944        -0.130591
 O        -2.658735         1.103451         1.959181
 C        -1.874018        -0.083554         1.541148
 H         0.712974        -0.728571         0.978333
 H        -0.177713         1.786736         2.706083
 H         0.264322         2.516518         1.067869
 H        -3.222976         3.700280         0.360300
 H        -1.753560         4.307440         1.210188
 H        -1.577067         3.135336        -1.642032
 H        -0.190244         3.312929        -0.603081
 H        -2.269841         0.832541        -0.799325
 H        -1.599064        -0.566108         2.472119
 H        -2.533759        -0.778590         0.969450
