19
Iteration:  2364charge 0 multiplicity 1
 O         0.335311        -0.293231         0.362683
 C        -0.721325         0.559617         0.739790
 C        -0.402003         1.700059         1.685399
 C        -1.954573         2.039972         1.174477
 C        -2.223342         3.490466         0.646269
 C        -1.139681         2.948163        -0.478772
 C        -1.541539         1.467285        -0.260831
 O        -2.713221         1.149423         1.926793
 C        -1.952162        -0.059520         1.574799
 H         0.297409        -0.517669        -0.574355
 H        -0.253856         1.316038         2.650026
 H         0.380377         2.363877         1.257186
 H        -3.243820         3.413751         0.150453
 H        -1.942490         4.174429         1.370098
 H        -1.398433         3.239823        -1.477887
 H        -0.175742         3.149223        -0.152247
 H        -2.254440         0.961428        -0.974240
 H        -1.521508        -0.449259         2.559573
 H        -2.641852        -0.829437         0.952995
