19
Iteration:   322charge 0 multiplicity 1
 O         0.208467        -0.439587         0.231803
 C        -0.677352         0.540528         0.787345
 C        -0.489239         1.842868         1.810599
 C        -1.855059         2.119145         1.236333
 C        -2.127990         3.447097         0.535816
 C        -1.369795         2.984306        -0.676320
 C        -1.470320         1.446555        -0.128166
 O        -2.653033         1.139456         1.930022
 C        -1.854864        -0.143290         1.581846
 H         0.902833        -0.541498         0.943583
 H        -0.157961         1.940039         2.893856
 H         0.335705         2.597649         1.371430
 H        -3.223465         3.588420         0.393842
 H        -1.761604         4.328116         1.057773
 H        -1.893413         3.141181        -1.601550
 H        -0.396165         3.622310        -0.894609
 H        -2.397128         0.957230        -0.653155
 H        -1.708034        -0.608086         2.559834
 H        -2.469586        -0.808150         0.926553
