19
Iteration:  3946charge 0 multiplicity 1
 O         0.284803        -0.344234         0.327254
 C        -0.671652         0.587890         0.755614
 C        -0.466445         1.799492         1.667291
 C        -1.923132         2.092853         1.236786
 C        -2.157347         3.443984         0.568736
 C        -1.266667         2.955291        -0.608612
 C        -1.558389         1.393900        -0.131167
 O        -2.689695         1.117234         1.983338
 C        -1.828646        -0.032982         1.548079
 H        -0.007488        -1.223792         0.395712
 H        -0.335001         1.473534         2.770241
 H         0.370947         2.520228         1.530348
 H        -3.063889         3.613270         0.057102
 H        -1.951069         4.417369         1.142849
 H        -1.888343         3.308040        -1.596733
 H        -0.221785         3.290691        -0.774700
 H        -2.279126         0.946317        -0.834409
 H        -1.318889        -0.589394         2.371362
 H        -2.374357        -0.738216         0.893789
