19
Iteration:  1454charge 0 multiplicity 1
 O         0.314941        -0.347828         0.261876
 C        -0.747801         0.452277         0.779009
 C        -0.477786         1.796083         1.589417
 C        -1.921916         2.101563         1.152199
 C        -2.158354         3.483436         0.634986
 C        -1.245930         2.998595        -0.549550
 C        -1.542449         1.438973        -0.159612
 O        -2.663863         1.147857         1.977916
 C        -1.899399        -0.094375         1.594027
 H         0.739734        -0.763942         1.078846
 H        -0.148177         1.688475         2.655692
 H         0.193039         2.296280         0.998472
 H        -3.208332         3.510456         0.250987
 H        -1.979092         4.346601         1.358268
 H        -1.605830         3.274115        -1.530076
 H        -0.086627         3.249905        -0.524710
 H        -2.309227         0.922191        -0.854000
 H        -1.477584        -0.468488         2.586898
 H        -2.629233        -0.705459         1.014346
