19
Iteration:  1231charge 0 multiplicity 1
 O         0.239790        -0.376207         0.208420
 C        -0.654754         0.560622         0.757738
 C        -0.453741         1.745984         1.733135
 C        -1.903984         2.089955         1.231084
 C        -2.283578         3.425652         0.639464
 C        -1.239741         2.908995        -0.599698
 C        -1.458662         1.445630        -0.221513
 O        -2.647367         1.159304         1.917761
 C        -1.893233         0.046289         1.626688
 H         0.557035        -0.900644         1.059625
 H        -0.385986         1.601554         2.779788
 H         0.334962         2.427836         1.459614
 H        -3.333811         3.505304         0.326276
 H        -2.017327         4.397388         1.172018
 H        -1.589072         3.153028        -1.739756
 H        -0.245049         3.213544        -0.441167
 H        -2.207704         0.901093        -0.787132
 H        -1.346662        -0.509195         2.446780
 H        -2.609071        -0.725988         1.055598
