19
Iteration:  1175charge 0 multiplicity 1
 O         0.263281        -0.363040         0.325997
 C        -0.713660         0.638227         0.730442
 C        -0.414733         1.826665         1.661484
 C        -1.918713         2.076750         1.235460
 C        -2.114590         3.461939         0.578209
 C        -1.302621         2.920068        -0.538807
 C        -1.599087         1.403012        -0.200019
 O        -2.656129         1.121242         1.973517
 C        -1.847378        -0.107878         1.507735
 H         0.608506        -0.669002         1.139102
 H        -0.453425         1.518595         2.725411
 H         0.344512         2.472982         1.415771
 H        -3.177264         3.736108         0.317113
 H        -1.620668         4.383552         1.050228
 H        -1.745744         3.162776        -1.659379
 H        -0.285981         3.190669        -0.459304
 H        -2.373742         1.055449        -0.824385
 H        -1.431638        -0.717020         2.363712
 H        -2.665900        -0.623219         0.804547
