19
Iteration:  4187charge 0 multiplicity 1
 O         0.303687        -0.288269         0.307125
 C        -0.728430         0.561083         0.768981
 C        -0.462779         1.833660         1.626597
 C        -1.940910         2.037789         1.180040
 C        -2.133682         3.452317         0.557376
 C        -1.280401         2.919956        -0.610955
 C        -1.551679         1.386932        -0.172500
 O        -2.620789         1.103140         1.966098
 C        -1.871890        -0.017634         1.669143
 H         0.010684        -1.180348         0.590479
 H        -0.341888         1.774411         2.747439
 H         0.234787         2.595076         1.189249
 H        -3.235319         3.550928         0.453456
 H        -1.727960         4.365558         1.150770
 H        -1.751042         3.240922        -1.588585
 H        -0.227049         3.199822        -0.679631
 H        -2.342994         0.735951        -0.734223
 H        -1.450673        -0.447169         2.573260
 H        -2.469340        -0.691395         1.061540
