19
Iteration:  1007charge 0 multiplicity 1
 O         0.230606        -0.372325         0.231574
 C        -0.661136         0.519017         0.810458
 C        -0.477684         1.805565         1.737051
 C        -1.875014         2.090470         1.243547
 C        -2.127502         3.438054         0.618039
 C        -1.406157         2.936582        -0.668666
 C        -1.438990         1.516942        -0.089570
 O        -2.679713         1.117708         1.921497
 C        -1.878443        -0.019330         1.527566
 H         0.801834        -0.917252         0.877416
 H        -0.170628         1.779571         2.800202
 H         0.228723         2.482466         1.152423
 H        -3.217483         3.716554         0.336303
 H        -1.552780         4.147075         1.255567
 H        -1.995892         2.829027        -1.504634
 H        -0.366268         3.460414        -0.937405
 H        -2.058580         0.871198        -0.569503
 H        -1.637270        -0.684875         2.430847
 H        -2.486435        -0.786291         0.926228
