19
Iteration:  2124charge 0 multiplicity 1
 O         0.191712        -0.472338         0.343121
 C        -0.671153         0.625566         0.741250
 C        -0.444615         1.775637         1.734520
 C        -1.860036         2.101276         1.239950
 C        -2.184997         3.502670         0.613392
 C        -1.280359         3.002468        -0.599331
 C        -1.466235         1.524716        -0.122137
 O        -2.691061         1.071339         1.888978
 C        -1.889517        -0.106062         1.506914
 H         1.145008        -0.227788         0.397087
 H        -0.358006         1.502649         2.812909
 H         0.302745         2.475944         1.561922
 H        -3.264480         3.586424         0.296627
 H        -1.823057         4.372137         1.095475
 H        -1.865444         2.965908        -1.561438
 H        -0.316219         3.383033        -0.680779
 H        -2.254759         0.963107        -0.713016
 H        -1.592833        -0.688134         2.302704
 H        -2.440672        -0.767827         0.762559
