19
Iteration:   628charge 0 multiplicity 1
 O         0.314969        -0.344152         0.243796
 C        -0.624022         0.536788         0.813638
 C        -0.405513         1.783045         1.668629
 C        -1.840651         2.121908         1.253294
 C        -2.157278         3.443995         0.613849
 C        -1.365812         2.955312        -0.605637
 C        -1.484666         1.402892        -0.175406
 O        -2.749549         1.154427         1.870463
 C        -1.964386        -0.086555         1.641413
 H         0.721529        -0.745095         0.967157
 H        -0.319028         1.520376         2.822515
 H         0.349214         2.398467         1.294389
 H        -3.248002         3.620880         0.439761
 H        -1.783260         4.340784         1.096229
 H        -1.925995         3.129069        -1.499258
 H        -0.360448         3.324704        -0.967858
 H        -2.330286         0.903071        -0.576059
 H        -1.580626        -0.475806         2.597623
 H        -2.477729        -0.600550         0.835410
