19
Iteration:  3298charge 0 multiplicity 1
 O         0.206087        -0.440632         0.389354
 C        -0.714585         0.553430         0.733458
 C        -0.419629         1.759064         1.670740
 C        -1.848872         2.078070         1.237325
 C        -2.251909         3.476312         0.580491
 C        -1.270678         3.013910        -0.590486
 C        -1.478215         1.480072        -0.111737
 O        -2.668912         1.123085         1.859081
 C        -1.895876        -0.073653         1.591613
 H         1.243279        -0.197958         0.435236
 H        -0.199427         1.548860         2.697679
 H         0.324429         2.453526         1.171408
 H        -3.175206         3.237283         0.223389
 H        -1.997725         4.374716         1.120055
 H        -1.729625         3.062374        -1.759909
 H        -0.253798         3.346718        -0.679888
 H        -2.312563         1.078243        -0.631096
 H        -1.530223        -0.381678         2.638264
 H        -2.429351        -0.624145         0.837189
