19
Iteration:  3740
 O         0.277309        -0.408330         0.345112
 C        -0.655888         0.497207         0.743847
 C        -0.447220         1.762621         1.617238
 C        -1.891746         2.041496         1.160610
 C        -2.206355         3.456660         0.652245
 C        -1.328051         3.031545        -0.647241
 C        -1.515574         1.400051        -0.223058
 O        -2.698894         1.215632         2.019643
 C        -1.885971        -0.083582         1.638112
 H         1.080713        -0.157034         0.652804
 H         0.031563         1.579522         2.607926
 H         0.232258         2.358319         1.023224
 H        -3.305548         3.309380         0.234605
 H        -2.023006         4.423496         1.208043
 H        -1.637116         3.410346        -1.693085
 H        -0.309463         3.359160        -0.613646
 H        -2.133350         0.979076        -0.975827
 H        -1.570102        -0.397397         2.670411
 H        -2.472573        -0.789419         1.113055
