19
Iteration:  2049
 O         0.223682        -0.383279         0.469546
 C        -0.670642         0.603032         0.707342
 C        -0.461007         1.863057         1.632171
 C        -1.933912         2.043857         1.185408
 C        -2.143243         3.445161         0.645072
 C        -1.191017         2.954835        -0.523785
 C        -1.605549         1.475233        -0.217488
 O        -2.622664         1.071338         1.911116
 C        -1.896805        -0.102182         1.502829
 H         0.667030        -0.487079        -0.436638
 H        -0.469102         1.543878         2.707804
 H         0.179446         2.673884         1.613072
 H        -3.128030         3.776269         0.407374
 H        -1.808355         4.201850         1.263382
 H        -1.448279         3.334772        -1.592112
 H        -0.261053         3.171404        -0.136811
 H        -2.389819         1.013841        -0.918494
 H        -1.550988        -0.696303         2.441607
 H        -2.597416        -0.673360         0.747410
