19
Iteration:    19charge 0 multiplicity 1
 O         0.286635        -0.367833         0.167032
 C        -0.691089         0.520954         0.882970
 C        -0.343650         1.862111         1.706384
 C        -1.774391         2.090710         1.284236
 C        -2.186713         3.383732         0.552948
 C        -1.265091         2.935764        -0.651723
 C        -1.481357         1.484634        -0.047551
 O        -2.795545         1.148834         1.851353
 C        -1.988830        -0.070540         1.646413
 H         0.644158        -0.982273         0.807066
 H         0.103075         2.005009         2.791774
 H         0.353862         2.454024         1.172173
 H        -3.202558         3.230562         0.119870
 H        -2.154399         4.377610         1.027282
 H        -1.798264         3.003309        -1.584589
 H        -0.304783         3.435253        -0.989671
 H        -2.412504         1.109646        -0.434368
 H        -1.815956        -0.552128         2.629140
 H        -2.512558        -0.795989         1.040043
