19
Iteration:  2273
 O         0.266661        -0.440316         0.422989
 C        -0.683747         0.476583         0.730088
 C        -0.425989         1.678679         1.661309
 C        -1.841373         2.114986         1.123992
 C        -2.208411         3.509365         0.616701
 C        -1.308535         3.116474        -0.515500
 C        -1.540742         1.501812        -0.244183
 O        -2.656038         1.117869         1.879878
 C        -1.939881        -0.121766         1.576456
 H         1.185623         0.078462         0.539699
 H        -0.429399         1.446356         2.749356
 H         0.360339         2.262411         1.289791
 H        -3.252047         3.437424         0.424499
 H        -1.853222         4.230815         1.290306
 H        -1.653242         3.285844        -1.557818
 H        -0.278810         3.536458        -0.402632
 H        -2.388482         1.237812        -0.813316
 H        -1.532779        -0.623512         2.595580
 H        -2.562869        -0.784416         1.009682
