19
Iteration:  3479charge 0 multiplicity 1
 O         0.364311        -0.383297         0.412798
 C        -0.666610         0.495746         0.746246
 C        -0.417969         1.755951         1.697962
 C        -1.882191         2.111721         1.194348
 C        -2.195707         3.463670         0.620468
 C        -1.276858         2.975761        -0.603253
 C        -1.504582         1.469248        -0.129836
 O        -2.738293         1.147878         1.897272
 C        -1.916237        -0.078458         1.579544
 H         0.196954        -0.551138        -0.569871
 H        -0.406024         1.498479         2.737285
 H         0.251700         2.481283         1.139653
 H        -3.308030         3.553267         0.448957
 H        -1.882384         4.397706         1.024965
 H        -1.847889         3.109802        -1.530133
 H        -0.227653         3.356074        -0.573344
 H        -2.299256         1.043441        -0.900220
 H        -1.665525        -0.505413         2.520273
 H        -2.516015        -0.674283         0.846996
