19
Iteration:  1006
 O         0.231108        -0.373834         0.233170
 C        -0.661426         0.526241         0.810190
 C        -0.473729         1.810620         1.728405
 C        -1.883915         2.089394         1.244923
 C        -2.125376         3.435517         0.621398
 C        -1.394397         2.935733        -0.670219
 C        -1.437731         1.510839        -0.085933
 O        -2.685019         1.119809         1.925252
 C        -1.878483        -0.021694         1.528155
 H         0.781651        -0.888042         0.851668
 H        -0.156372         1.759304         2.801446
 H         0.214273         2.466126         1.162119
 H        -3.224735         3.691377         0.374605
 H        -1.568394         4.144381         1.251787
 H        -1.976848         2.827168        -1.523013
 H        -0.398210         3.456581        -0.949674
 H        -2.081381         0.871187        -0.584160
 H        -1.630715        -0.683149         2.406388
 H        -2.455385        -0.748711         0.909280
