19
Iteration:  2089
 O         0.296342        -0.410087         0.366018
 C        -0.661883         0.568451         0.707216
 C        -0.383203         1.731719         1.709122
 C        -1.831470         2.072022         1.224458
 C        -2.163281         3.436692         0.636641
 C        -1.296512         3.030657        -0.585493
 C        -1.461589         1.486341        -0.153446
 O        -2.772101         1.135930         1.832478
 C        -2.004526        -0.111247         1.632245
 H         0.977654         0.069007        -0.115264
 H        -0.347315         1.361456         2.718326
 H         0.399793         2.438052         1.336491
 H        -3.328415         3.444189         0.543535
 H        -1.794717         4.355086         1.121770
 H        -1.658095         3.156734        -1.592224
 H        -0.349636         3.588518        -0.662235
 H        -2.286586         1.061129        -0.751245
 H        -1.788580        -0.568469         2.500854
 H        -2.600126        -0.831770         1.037919
