19
Iteration:  2684
 O         0.404674        -0.339046         0.372032
 C        -0.708888         0.516890         0.718942
 C        -0.490556         1.730354         1.730566
 C        -1.865948         2.080477         1.178954
 C        -2.147968         3.445767         0.671655
 C        -1.243045         3.039591        -0.587783
 C        -1.512282         1.457909        -0.164149
 O        -2.753265         1.133612         1.859560
 C        -1.960718        -0.066784         1.586986
 H         0.076453        -0.881111        -0.435699
 H        -0.377091         1.611315         2.844022
 H         0.201060         2.470111         1.339243
 H        -3.127553         3.410621         0.368620
 H        -1.869549         4.295687         1.390264
 H        -1.741542         3.147242        -1.556809
 H        -0.113042         3.306544        -0.642253
 H        -2.262693         1.155260        -0.958849
 H        -1.567213        -0.532379         2.553484
 H        -2.500779        -0.875922         1.134440
