19
Iteration:  3485charge 0 multiplicity 1
 O         0.361126        -0.392926         0.407331
 C        -0.649824         0.512712         0.769648
 C        -0.422620         1.792659         1.676042
 C        -1.878672         2.054616         1.214273
 C        -2.205348         3.476360         0.614099
 C        -1.283457         2.916998        -0.610714
 C        -1.539989         1.521890        -0.134446
 O        -2.718061         1.122993         1.884446
 C        -1.954674        -0.069460         1.579693
 H         0.282256        -0.463417        -0.627052
 H        -0.290503         1.691848         2.799233
 H         0.270158         2.535308         1.334790
 H        -3.228755         3.635832         0.352298
 H        -1.643155         4.317327         1.141707
 H        -1.720676         3.182779        -1.576036
 H        -0.291086         3.451396        -0.670423
 H        -2.175083         1.139409        -0.849761
 H        -1.676247        -0.687674         2.534122
 H        -2.614725        -0.690342         0.958939
