19
Iteration:   306
 O         0.194996        -0.398051         0.264387
 C        -0.653257         0.572803         0.810934
 C        -0.382247         1.833409         1.728152
 C        -1.839136         2.090559         1.227497
 C        -2.192383         3.425261         0.625747
 C        -1.297650         2.878815        -0.667168
 C        -1.555067         1.483815        -0.121751
 O        -2.680178         1.131837         1.898583
 C        -1.887564        -0.007960         1.552976
 H         0.945006        -0.597859         0.742378
 H        -0.416529         1.590241         2.782988
 H         0.393015         2.473531         1.384389
 H        -3.231880         3.438911         0.298537
 H        -1.985907         4.398214         1.125138
 H        -1.848549         3.049725        -1.630723
 H        -0.299719         3.087075        -0.553295
 H        -2.311605         0.923762        -0.556597
 H        -1.360328        -0.514625         2.422612
 H        -2.452271        -0.640714         0.857493
