19
Iteration:  4284
 O         0.228868        -0.466938         0.407919
 C        -0.671481         0.578741         0.722649
 C        -0.401900         1.858471         1.684004
 C        -1.943089         2.092887         1.228266
 C        -2.166518         3.465313         0.560718
 C        -1.343087         2.986466        -0.779793
 C        -1.579413         1.491499        -0.152210
 O        -2.660407         1.103523         2.036027
 C        -1.823209        -0.090080         1.631646
 H         0.997483        -0.146301         0.053560
 H        -0.264634         1.658650         2.698170
 H         0.297552         2.468601         1.150707
 H        -3.106174         3.570090         0.271331
 H        -1.749592         4.361009         1.070904
 H        -1.738835         2.944162        -1.796497
 H        -0.337838         3.288610        -0.764960
 H        -2.310309         0.886071        -0.756662
 H        -1.441435        -0.561218         2.533101
 H        -2.319955        -0.988708         1.064629
