19
Iteration:  2217charge 0 multiplicity 1
 O         0.205650        -0.439523         0.305703
 C        -0.679424         0.561160         0.803825
 C        -0.537064         1.787915         1.855966
 C        -1.863242         2.114544         1.245926
 C        -2.168225         3.494196         0.595985
 C        -1.291381         2.954159        -0.638761
 C        -1.441120         1.451517        -0.154253
 O        -2.669472         1.088069         1.877074
 C        -1.879619        -0.060743         1.474024
 H         0.690965        -0.031960        -0.451312
 H        -0.421581         1.853353         2.928152
 H         0.398817         2.405357         1.582911
 H        -3.167855         3.807166         0.498789
 H        -1.826061         4.320210         1.322600
 H        -1.793330         3.022070        -1.601971
 H        -0.157492         3.325092        -0.510327
 H        -2.078470         1.002463        -0.893530
 H        -1.437662        -0.699125         2.443303
 H        -2.486336        -0.753691         0.926221
