19
Iteration:  1462charge 0 multiplicity 1
 O         0.315449        -0.349430         0.263634
 C        -0.732081         0.501404         0.791894
 C        -0.380442         1.762641         1.552140
 C        -1.907100         2.104856         1.198269
 C        -2.187518         3.482330         0.669232
 C        -1.239330         2.973780        -0.535106
 C        -1.574677         1.420739        -0.208633
 O        -2.710825         1.148618         1.957807
 C        -1.930735        -0.099972         1.595481
 H         0.771219        -0.619192         1.062076
 H        -0.118383         1.786923         2.564677
 H         0.429056         2.432606         1.115605
 H        -3.123620         3.546576         0.152574
 H        -2.071196         4.545053         1.202442
 H        -1.549560         3.162610        -1.514229
 H        -0.164430         3.187308        -0.353807
 H        -2.361882         1.013153        -0.819706
 H        -1.575147        -0.437467         2.526838
 H        -2.507510        -0.887392         1.117820
