19
Iteration:  2909charge 0 multiplicity 1
 O         0.265994        -0.360329         0.347453
 C        -0.697021         0.573094         0.737836
 C        -0.467472         1.780553         1.778473
 C        -1.894875         2.053776         1.227843
 C        -2.191195         3.459726         0.611919
 C        -1.243747         2.924538        -0.520809
 C        -1.460999         1.499798        -0.208304
 O        -2.695555         1.140351         1.873552
 C        -1.851706        -0.071042         1.517013
 H        -0.070901        -1.089258        -0.124910
 H        -0.478787         1.540271         2.901239
 H         0.268101         2.626158         1.606533
 H        -3.254490         3.608872         0.238116
 H        -2.032507         4.354856         1.207578
 H        -1.568292         3.092687        -1.569737
 H        -0.191416         3.422512        -0.537088
 H        -2.196949         0.925493        -0.896437
 H        -1.432286        -0.560621         2.387491
 H        -2.497582        -0.776256         0.886884
