19
Iteration:  4256
 O         0.306397        -0.396815         0.423235
 C        -0.661088         0.508926         0.773447
 C        -0.374435         1.805504         1.656130
 C        -1.850910         2.095640         1.154337
 C        -2.202106         3.423696         0.651214
 C        -1.446277         2.962662        -0.610292
 C        -1.520445         1.330854        -0.185512
 O        -2.645014         1.248878         1.913898
 C        -1.884709        -0.013743         1.595737
 H         0.332432        -0.535186        -0.492897
 H        -0.280179         1.707995         2.829015
 H         0.470737         2.387895         1.198285
 H        -3.376435         3.411851         0.232932
 H        -1.969853         4.391598         1.114794
 H        -1.859832         2.996588        -1.607714
 H        -0.316514         3.296729        -0.603398
 H        -2.255475         0.737406        -0.753790
 H        -1.643134        -0.426947         2.625506
 H        -2.416138        -0.692857         1.011380
