19
Iteration:  3866charge 0 multiplicity 1
 O         0.301641        -0.389188         0.387933
 C        -0.685411         0.541987         0.833792
 C        -0.426998         1.751285         1.684290
 C        -1.863482         2.107599         1.132435
 C        -2.210510         3.488856         0.536023
 C        -1.358631         3.007510        -0.617720
 C        -1.507444         1.468372        -0.159810
 O        -2.627702         1.110129         1.951275
 C        -1.865273        -0.075218         1.579007
 H        -0.155879        -1.089561        -0.079574
 H        -0.392700         1.650476         2.780631
 H         0.340253         2.429824         1.266068
 H        -3.314309         3.461211         0.362515
 H        -1.920461         4.440156         1.102302
 H        -1.868759         3.236907        -1.527768
 H        -0.291771         3.369128        -0.455266
 H        -2.419341         1.093347        -0.734233
 H        -1.410556        -0.547558         2.388863
 H        -2.344979        -0.794899         0.978201
