19
Iteration:  1476charge 0 multiplicity 1
 O         0.238818        -0.351876         0.293447
 C        -0.666767         0.604780         0.663376
 C        -0.288603         1.743074         1.626341
 C        -1.872365         2.051894         1.241204
 C        -2.212293         3.411062         0.578505
 C        -1.266085         2.921656        -0.554383
 C        -1.569603         1.501842        -0.147874
 O        -2.743154         1.127532         1.897441
 C        -1.936340        -0.045257         1.666250
 H         0.968627        -0.415850         0.970375
 H        -0.123404         1.345569         2.669818
 H         0.394642         2.396347         1.265218
 H        -3.322330         3.519378         0.409299
 H        -1.804133         4.266465         1.168033
 H        -1.542951         3.267297        -1.555198
 H        -0.178165         3.313848        -0.404766
 H        -2.470653         1.030020        -0.698169
 H        -1.554923        -0.501460         2.632429
 H        -2.574822        -0.633524         0.961394
