19
Iteration:  1074charge 0 multiplicity 1
 O         0.231904        -0.339843         0.258830
 C        -0.673657         0.515927         0.833701
 C        -0.430138         1.811583         1.581779
 C        -1.902066         2.080392         1.146079
 C        -2.267431         3.485341         0.620199
 C        -1.230811         2.991035        -0.635770
 C        -1.522235         1.421685        -0.143646
 O        -2.617281         1.091705         2.036554
 C        -1.895536        -0.069726         1.614405
 H         0.455109        -0.979480         0.923331
 H        -0.488621         1.783134         2.673552
 H         0.387904         2.445751         1.129848
 H        -3.320509         3.596886         0.179396
 H        -1.885369         4.310474         1.295733
 H        -1.406803         3.299382        -1.638466
 H        -0.143272         3.358709        -0.440491
 H        -2.210373         1.138772        -0.866524
 H        -1.780471        -0.875974         2.404230
 H        -2.395377        -0.674144         0.774424
