19
Iteration:  3268
 O         0.305503        -0.427079         0.388675
 C        -0.680158         0.524473         0.675421
 C        -0.461556         1.777739         1.672203
 C        -1.922448         2.087985         1.185240
 C        -2.155515         3.464906         0.647564
 C        -1.341407         3.043113        -0.591371
 C        -1.508504         1.387714        -0.202595
 O        -2.697920         1.173413         1.927731
 C        -1.889882        -0.051432         1.578120
 H         1.071944        -0.364286         0.896836
 H        -0.232235         1.503567         2.718524
 H         0.201726         2.419416         1.126979
 H        -3.253843         3.627087         0.264006
 H        -1.722417         4.295469         1.278816
 H        -1.622263         3.179398        -1.675103
 H        -0.213300         3.279311        -0.663507
 H        -2.354929         0.913875        -0.770424
 H        -1.627077        -0.575214         2.561403
 H        -2.475638        -0.766622         0.985396
