19
Iteration:  1805
 O         0.349558        -0.390001         0.367991
 C        -0.674129         0.558686         0.762253
 C        -0.363775         1.679471         1.790683
 C        -1.853342         2.100450         1.216351
 C        -2.167316         3.454841         0.685880
 C        -1.315936         3.004830        -0.634078
 C        -1.426544         1.506546        -0.127816
 O        -2.826155         1.140089         1.835884
 C        -1.925836        -0.058791         1.513610
 H         0.119373        -0.809567        -0.540882
 H        -0.525575         1.438145         2.870895
 H         0.362071         2.473536         1.413545
 H        -3.303011         3.640104         0.480102
 H        -1.725401         4.240756         1.269664
 H        -1.872219         3.126685        -1.547579
 H        -0.322305         3.431850        -0.982967
 H        -2.344880         1.027724        -0.615367
 H        -1.515990        -0.457679         2.408045
 H        -2.535478        -0.796609         0.866440
