19
Iteration:  4663
 O         0.236144        -0.422302         0.305650
 C        -0.638465         0.544540         0.737151
 C        -0.342152         1.798623         1.612437
 C        -1.862457         2.083916         1.294694
 C        -2.202279         3.395257         0.490677
 C        -1.380367         2.955610        -0.666339
 C        -1.490913         1.417361        -0.109136
 O        -2.702439         1.207088         2.028850
 C        -1.901371        -0.029134         1.586093
 H         0.920974        -0.625755         1.094713
 H        -0.007307         1.771989         2.656933
 H         0.380219         2.550519         1.188018
 H        -3.292647         3.318535         0.123872
 H        -2.157280         4.395983         1.043601
 H        -1.839087         3.148754        -1.647299
 H        -0.382656         3.329506        -0.786601
 H        -2.363691         1.029697        -0.541968
 H        -1.484893        -0.542119         2.518393
 H        -2.514687        -0.661335         1.012560
