19
Iteration:  3223
 O         0.290591        -0.315562         0.293699
 C        -0.705687         0.583645         0.777472
 C        -0.434214         1.747227         1.645243
 C        -1.885808         2.054788         1.248535
 C        -2.118741         3.472109         0.557283
 C        -1.274901         2.854051        -0.574920
 C        -1.567780         1.462880        -0.109117
 O        -2.710941         1.126990         1.914942
 C        -1.899749        -0.026965         1.550911
 H         0.759586        -0.596396         1.025968
 H        -0.436981         1.510769         2.696220
 H         0.148130         2.633361         1.267364
 H        -3.243062         3.365104         0.414394
 H        -1.664277         4.399122         1.034568
 H        -1.638840         3.225528        -1.645586
 H        -0.298832         3.390427        -0.593593
 H        -2.301925         0.924287        -0.693580
 H        -1.481029        -0.654783         2.457900
 H        -2.492397        -0.684832         0.910959
