19
Iteration:  4854
 O         0.308361        -0.312454         0.227170
 C        -0.729263         0.524504         0.803094
 C        -0.396810         1.823303         1.606570
 C        -1.847330         2.041175         1.188008
 C        -2.129393         3.415687         0.618269
 C        -1.378832         2.857667        -0.672775
 C        -1.564541         1.413623        -0.115902
 O        -2.743745         1.208048         1.886125
 C        -1.852459        -0.024280         1.768315
 H         0.814356        -0.713941         1.081328
 H        -0.041049         1.503984         2.636599
 H         0.413686         2.495743         1.161245
 H        -3.137020         3.717926         0.362903
 H        -1.726618         4.247452         1.129434
 H        -1.907673         3.038139        -1.719451
 H        -0.226034         3.079598        -0.817192
 H        -2.565768         0.937094        -0.610877
 H        -1.410647        -0.168232         2.731488
 H        -2.484262        -0.816545         1.238941
