19
Iteration:  1552charge 0 multiplicity 1
 O         0.339244        -0.366933         0.502495
 C        -0.769121         0.549282         0.676398
 C        -0.368411         1.773001         1.534473
 C        -1.869271         2.027429         1.225563
 C        -2.144354         3.467325         0.691989
 C        -1.260250         2.980153        -0.558323
 C        -1.601762         1.460434        -0.186401
 O        -2.660776         1.121736         1.910610
 C        -1.959875        -0.073474         1.533294
 H         0.493859        -0.555272        -0.485548
 H        -0.183314         1.418911         2.634591
 H         0.340037         2.505512         1.308801
 H        -3.253881         3.664370         0.332073
 H        -2.055314         4.414822         1.324321
 H        -1.735588         3.295049        -1.519771
 H        -0.180623         3.309476        -0.450279
 H        -2.550977         1.095071        -0.763629
 H        -1.543187        -0.401950         2.457156
 H        -2.522491        -0.768488         0.917374
