19
Iteration:  4228charge 0 multiplicity 1
 O         0.342798        -0.343517         0.409786
 C        -0.688998         0.521119         0.735356
 C        -0.405360         1.746260         1.613454
 C        -1.852107         2.095179         1.231933
 C        -2.201705         3.427677         0.531693
 C        -1.350074         2.965715        -0.632407
 C        -1.551629         1.483059        -0.156675
 O        -2.656111         1.102572         1.990682
 C        -1.918482         0.000457         1.638585
 H         0.219561        -1.235255         0.063137
 H         0.047306         1.675361         2.552598
 H         0.221018         2.520264         1.187952
 H        -3.093257         3.493794         0.097085
 H        -2.068949         4.436295         0.949831
 H        -1.727590         3.011779        -1.682883
 H        -0.378708         3.317113        -0.619886
 H        -2.478567         1.132674        -0.671205
 H        -1.548403        -0.394750         2.578076
 H        -2.570225        -0.706399         0.965396
