19
Iteration:     7charge 0 multiplicity 1
 O         0.254776        -0.359917         0.277991
 C        -0.671326         0.550897         0.786206
 C        -0.392168         1.809502         1.694399
 C        -1.887133         2.118414         1.194014
 C        -2.152654         3.400063         0.549609
 C        -1.262253         2.925441        -0.612211
 C        -1.525524         1.475749        -0.148947
 O        -2.690987         1.134829         1.912290
 C        -1.939596        -0.047151         1.638224
 H         0.761315        -0.940536         0.997891
 H        -0.256027         1.668969         2.841508
 H         0.298670         2.406701         1.090808
 H        -3.241294         3.390600         0.303848
 H        -1.924491         4.276398         1.183373
 H        -1.885311         3.014176        -1.513815
 H        -0.230490         3.362859        -0.657774
 H        -2.477098         1.155821        -0.633157
 H        -1.505592        -0.613134         2.493088
 H        -2.607544        -0.644619         0.990136
