19
Iteration:  1522
 O         0.224504        -0.471263         0.349084
 C        -0.702060         0.531751         0.802979
 C        -0.394529         1.827012         1.722185
 C        -1.912597         2.043462         1.201319
 C        -2.147201         3.519044         0.624279
 C        -1.362208         3.017250        -0.644931
 C        -1.472444         1.459481        -0.141409
 O        -2.626893         1.088644         1.954231
 C        -1.931739        -0.060602         1.500694
 H         0.965437        -0.082232        -0.029835
 H        -0.395161         1.508992         2.803484
 H         0.173905         2.576403         1.274009
 H        -3.222447         3.826679         0.373122
 H        -1.653509         4.254733         1.175531
 H        -1.754560         3.190653        -1.732562
 H        -0.362310         3.484123        -0.658516
 H        -2.276800         0.889640        -0.737975
 H        -1.540775        -0.566536         2.505470
 H        -2.440753        -0.749713         0.760037
