19
Iteration:  4621charge 0 multiplicity 1
 O         0.287252        -0.404037         0.270487
 C        -0.708006         0.587472         0.771679
 C        -0.442069         1.822343         1.636615
 C        -1.887333         2.071242         1.149512
 C        -2.181483         3.410004         0.547008
 C        -1.317291         2.986864        -0.629657
 C        -1.599697         1.393486        -0.208424
 O        -2.664592         1.157543         2.020149
 C        -1.817422        -0.022815         1.707419
 H         0.433546        -1.036383         1.064991
 H        -0.208663         1.637203         2.697296
 H         0.261942         2.560548         1.249813
 H        -3.189128         3.572675         0.204265
 H        -1.790199         4.235723         0.946133
 H        -1.752485         3.253519        -1.589433
 H        -0.224961         3.343503        -0.744967
 H        -2.317530         0.769244        -0.779065
 H        -1.270802        -0.300943         2.647298
 H        -2.482577        -0.804931         1.321624
