19
Iteration:  2912charge 0 multiplicity 1
 O         0.270113        -0.344121         0.342625
 C        -0.695354         0.556365         0.714413
 C        -0.458737         1.774286         1.785767
 C        -1.894161         2.064992         1.233345
 C        -2.193971         3.446784         0.598006
 C        -1.251726         2.910234        -0.518472
 C        -1.481545         1.518887        -0.195696
 O        -2.696702         1.129795         1.871402
 C        -1.854089        -0.066497         1.507587
 H        -0.040095        -1.145157        -0.101999
 H        -0.544507         1.620555         2.862258
 H         0.247849         2.683730         1.603133
 H        -3.215290         3.593189         0.183016
 H        -1.923295         4.442798         1.289640
 H        -1.460885         3.118818        -1.524202
 H        -0.161103         3.331260        -0.541645
 H        -2.146258         0.996242        -0.829218
 H        -1.503524        -0.596172         2.467709
 H        -2.486265        -0.806832         1.028387
