19
Iteration:  2477charge 0 multiplicity 1
 O         0.319245        -0.350061         0.426700
 C        -0.687887         0.597967         0.716876
 C        -0.498381         1.772107         1.691755
 C        -1.913469         2.070701         1.222683
 C        -2.158887         3.473001         0.641165
 C        -1.213052         2.993417        -0.578084
 C        -1.521191         1.501216        -0.226490
 O        -2.695927         1.092572         1.895753
 C        -1.900815        -0.097910         1.532121
 H        -0.085666        -1.066079        -0.230773
 H        -0.391702         1.376591         2.752911
 H         0.326006         2.430264         1.522800
 H        -3.118746         3.563307         0.185450
 H        -1.909946         4.308140         1.401993
 H        -1.559718         3.354355        -1.490463
 H        -0.173742         3.079596        -0.211438
 H        -2.371815         1.131689        -0.899109
 H        -1.470123        -0.623710         2.338504
 H        -2.506277        -0.887116         0.834705
