19
Iteration:  1083charge 0 multiplicity 1
 O         0.208668        -0.371293         0.237272
 C        -0.669841         0.523070         0.839318
 C        -0.450004         1.763514         1.713425
 C        -1.990615         2.054257         1.143167
 C        -2.224955         3.434272         0.566124
 C        -1.242666         2.999341        -0.642775
 C        -1.495657         1.505528        -0.173492
 O        -2.582959         1.129976         2.030361
 C        -1.868870        -0.057460         1.551285
 H         0.669477        -0.984536         0.803189
 H        -0.333598         1.784321         2.823201
 H         0.408348         2.439941         1.288701
 H        -3.374786         3.584134         0.304942
 H        -1.961412         4.377305         1.136227
 H        -1.637748         3.201465        -1.557401
 H        -0.126523         3.419143        -0.451222
 H        -2.259244         0.872341        -0.628082
 H        -1.572179        -0.628535         2.487841
 H        -2.529003        -0.606926         0.902832
