19
Iteration:   994
 O         0.229028        -0.363196         0.241930
 C        -0.636913         0.636122         0.809658
 C        -0.351126         1.839311         1.657541
 C        -1.915170         2.051137         1.247269
 C        -2.139816         3.444408         0.656969
 C        -1.296903         2.907232        -0.665181
 C        -1.506411         1.388883        -0.146960
 O        -2.744786         1.127608         1.972366
 C        -1.897220        -0.078517         1.537499
 H         0.696151        -0.684965         0.978991
 H        -0.217990         1.592282         2.754079
 H         0.319927         2.579434         1.313871
 H        -3.275824         3.585703         0.582464
 H        -1.831098         4.379858         1.114806
 H        -1.885628         3.089899        -1.545767
 H        -0.316296         3.406092        -0.839630
 H        -2.286877         1.030131        -0.755739
 H        -1.619960        -0.661756         2.418012
 H        -2.425401        -0.544449         0.747225
