19
Iteration:  4768
 O         0.308880        -0.348588         0.257020
 C        -0.689708         0.526465         0.746825
 C        -0.378983         1.783560         1.695800
 C        -1.841838         2.069264         1.154056
 C        -2.259194         3.384410         0.573628
 C        -1.346806         2.953417        -0.721109
 C        -1.534389         1.422876        -0.130843
 O        -2.659011         1.244265         2.027454
 C        -1.909861        -0.014379         1.695113
 H         0.467433        -0.896934         0.945052
 H        -0.176593         1.467401         2.700415
 H         0.375585         2.308137         1.079556
 H        -3.319452         3.381579         0.378056
 H        -1.887728         4.262857         0.997045
 H        -1.757722         2.874318        -1.803731
 H        -0.301660         3.284407        -0.618009
 H        -2.383008         0.992551        -0.770951
 H        -1.375565        -0.420812         2.550534
 H        -2.524947        -0.814601         1.189281
