19
Iteration:  4841
 O         0.284424        -0.371612         0.265373
 C        -0.650535         0.569352         0.725481
 C        -0.296147         1.753833         1.637967
 C        -1.933070         2.109273         1.224354
 C        -2.170778         3.479331         0.594072
 C        -1.337504         2.851357        -0.709653
 C        -1.573665         1.423631        -0.151603
 O        -2.732965         1.160576         1.945492
 C        -1.867340         0.012083         1.727940
 H         0.751399        -0.752435         0.976377
 H        -0.382388         1.788356         2.761903
 H         0.365983         2.534555         1.176451
 H        -3.268127         3.494805         0.358255
 H        -1.707153         4.315677         1.228070
 H        -2.009479         2.932010        -1.569332
 H        -0.323367         3.424387        -0.885826
 H        -2.370693         0.800198        -0.757055
 H        -1.486280        -0.368252         2.690234
 H        -2.461308        -0.909334         1.418492
