19
Iteration:   727
 O         0.265361        -0.392059         0.247449
 C        -0.648505         0.587503         0.766587
 C        -0.398545         1.792148         1.739220
 C        -1.907844         2.048615         1.263082
 C        -2.179511         3.428718         0.623697
 C        -1.327506         2.911699        -0.670850
 C        -1.509069         1.496382        -0.158202
 O        -2.753636         1.174718         1.917737
 C        -1.830800        -0.040583         1.532920
 H         0.623058        -0.778277         0.994009
 H        -0.122080         1.471852         2.833098
 H         0.465601         2.457960         1.452920
 H        -3.229364         3.608165         0.318808
 H        -1.799078         4.245219         1.279891
 H        -1.866199         3.075749        -1.655870
 H        -0.282103         3.478402        -0.599948
 H        -2.356916         0.859487        -0.556170
 H        -1.514480        -0.598751         2.508137
 H        -2.503928        -0.765073         0.977035
