19
Iteration:   502
 O         0.273401        -0.363834         0.261628
 C        -0.650942         0.579379         0.779842
 C        -0.332236         1.801547         1.705461
 C        -1.919517         2.128239         1.289789
 C        -2.154544         3.449024         0.614193
 C        -1.345270         2.912538        -0.649992
 C        -1.497246         1.440072        -0.107672
 O        -2.750125         1.120293         1.914720
 C        -1.925803        -0.089973         1.538796
 H         0.725205        -0.680474         1.026353
 H        -0.061827         1.729339         2.747306
 H         0.357276         2.603070         1.183735
 H        -3.093887         3.621414         0.117969
 H        -1.806378         4.411121         1.081430
 H        -1.918531         3.225689        -1.621328
 H        -0.311345         3.260821        -0.747813
 H        -2.335740         0.829474        -0.712860
 H        -1.672469        -0.573873         2.386636
 H        -2.367816        -0.912397         1.031967
