19
Iteration:  4707charge 0 multiplicity 1
 O         0.302233        -0.344803         0.291658
 C        -0.742114         0.576120         0.743889
 C        -0.441312         1.825491         1.586695
 C        -1.890799         2.099773         1.161487
 C        -2.100139         3.441017         0.571914
 C        -1.313883         2.887343        -0.633184
 C        -1.622207         1.406996        -0.190619
 O        -2.669825         1.169166         2.058532
 C        -1.872887        -0.082537         1.682641
 H         0.908548        -0.531407         1.060210
 H        -0.230375         1.634402         2.660148
 H         0.292078         2.551793         1.195935
 H        -3.194402         3.509019         0.240956
 H        -1.721796         4.450742         0.978874
 H        -1.841887         2.977703        -1.550397
 H        -0.288622         3.217763        -0.759388
 H        -2.264253         0.840790        -0.810944
 H        -1.556312        -0.672352         2.594325
 H        -2.440630        -0.748240         1.074560
