19
Iteration:  1949
 O         0.248877        -0.437708         0.438433
 C        -0.756251         0.496772         0.749204
 C        -0.484605         1.846291         1.626028
 C        -1.878500         2.128590         1.174741
 C        -2.149077         3.579726         0.647829
 C        -1.256354         2.997949        -0.561504
 C        -1.479181         1.494684        -0.183690
 O        -2.664911         1.015930         1.951996
 C        -1.910991        -0.153701         1.508578
 H         0.896336         0.049771         0.045553
 H        -0.588547         1.854787         2.675638
 H         0.345439         2.412010         1.170635
 H        -3.203581         3.750554         0.429326
 H        -1.871879         4.397994         1.173194
 H        -1.640086         3.224624        -1.546955
 H        -0.231037         3.333726        -0.641003
 H        -2.166250         1.041897        -0.956204
 H        -1.511394        -0.752101         2.349725
 H        -2.412546        -0.989467         0.888513
