19
Iteration:  4862charge 0 multiplicity 1
 O         0.270224        -0.264444         0.252118
 C        -0.688630         0.510709         0.789580
 C        -0.449496         1.817786         1.641416
 C        -1.847940         2.052081         1.208297
 C        -2.091230         3.463279         0.547316
 C        -1.376748         2.884917        -0.638430
 C        -1.607915         1.344094        -0.182573
 O        -2.699147         1.187736         1.898752
 C        -1.842358        -0.011656         1.742000
 H         0.940614        -0.744843         0.943216
 H         0.006579         1.570661         2.630615
 H         0.216583         2.331613         0.934149
 H        -3.204240         3.500145         0.481451
 H        -1.533636         4.299538         1.127395
 H        -1.793867         3.070556        -1.579236
 H        -0.262633         3.073093        -0.597317
 H        -2.518261         0.790763        -0.450347
 H        -1.634440        -0.303096         2.792419
 H        -2.522461        -0.820427         1.363930
