19
Iteration:  3275
 O         0.277869        -0.430125         0.387863
 C        -0.711657         0.562352         0.754429
 C        -0.356132         1.756216         1.665379
 C        -1.894006         2.035547         1.215514
 C        -2.237522         3.450015         0.632783
 C        -1.298966         2.988327        -0.634697
 C        -1.509295         1.428931        -0.232653
 O        -2.725527         1.181259         1.898305
 C        -1.896060        -0.066999         1.561690
 H         1.051429        -0.275643         0.862607
 H        -0.242729         1.572828         2.718242
 H         0.407910         2.512347         1.267358
 H        -3.216339         3.598004         0.359635
 H        -1.677951         4.203749         1.167738
 H        -1.774964         3.688335        -1.476962
 H        -0.279418         3.231197        -0.536950
 H        -2.360336         0.917618        -0.610045
 H        -1.420633        -0.343669         2.546405
 H        -2.503428        -0.714394         0.930374
