19
Iteration:  4900
 O         0.235218        -0.400619         0.280520
 C        -0.668877         0.599447         0.757825
 C        -0.468584         1.790145         1.653256
 C        -1.934279         2.130086         1.270777
 C        -2.163137         3.423672         0.479387
 C        -1.285750         2.871155        -0.687402
 C        -1.572629         1.390407        -0.167747
 O        -2.565433         1.170959         2.120142
 C        -1.883903        -0.033053         1.591084
 H         0.838370        -0.681189         1.049121
 H        -0.243851         1.838797         2.728944
 H         0.056231         2.609620         1.192402
 H        -3.184709         3.484283         0.151585
 H        -1.923085         4.346215         0.889367
 H        -1.740886         3.128036        -1.741358
 H        -0.294391         3.365041        -0.675634
 H        -2.483562         0.944832        -0.709718
 H        -1.455577        -0.610806         2.407213
 H        -2.573154        -0.547487         0.896757
