19
Iteration:   746charge 0 multiplicity 1
 O         0.273876        -0.351174         0.329306
 C        -0.673968         0.574678         0.722095
 C        -0.495174         1.740850         1.667192
 C        -1.877621         2.108234         1.159877
 C        -2.152382         3.521696         0.596082
 C        -1.329330         2.961556        -0.566851
 C        -1.574979         1.455707        -0.230792
 O        -2.606861         1.054054         1.987453
 C        -1.884041        -0.068038         1.594377
 H         0.662524        -0.864013         0.998050
 H        -0.532845         1.704085         2.838265
 H         0.228675         2.447145         1.388350
 H        -3.224113         3.777700         0.291052
 H        -1.729531         4.311992         1.184132
 H        -1.697563         3.256202        -1.519097
 H        -0.176923         3.252438        -0.671222
 H        -2.345263         0.805231        -0.957094
 H        -1.497402        -0.491533         2.474254
 H        -2.525046        -0.714671         0.959968
