19
Iteration:  3489
 O         0.353417        -0.396715         0.393553
 C        -0.659157         0.550607         0.800002
 C        -0.434188         1.806413         1.672503
 C        -1.896136         2.031118         1.232065
 C        -2.174047         3.480956         0.615316
 C        -1.299995         2.917375        -0.618659
 C        -1.528744         1.527812        -0.150754
 O        -2.699733         1.107683         1.883526
 C        -1.972135        -0.069783         1.576154
 H         0.382906        -0.440571        -0.542514
 H        -0.203729         1.804912         2.740023
 H         0.374250         2.584282         1.424068
 H        -3.190667         3.734621         0.266559
 H        -1.680756         4.169871         1.214275
 H        -1.629959         3.162785        -1.634552
 H        -0.276300         3.441074        -0.667136
 H        -2.331020         0.990471        -0.824923
 H        -1.685408        -0.707660         2.439680
 H        -2.660371        -0.785583         1.000781
