19
Iteration:  1933charge 0 multiplicity 1
 O         0.283387        -0.410290         0.402519
 C        -0.658444         0.564872         0.785842
 C        -0.492235         1.705749         1.735356
 C        -1.931541         2.037891         1.179562
 C        -2.132684         3.434092         0.625894
 C        -1.281528         3.049817        -0.616663
 C        -1.506148         1.472637        -0.200948
 O        -2.686864         1.144980         1.887230
 C        -1.898722        -0.096957         1.548114
 H         0.787488        -0.065793        -0.330360
 H        -0.246815         1.454761         2.837313
 H         0.244626         2.466539         1.440378
 H        -3.144010         3.766538         0.286764
 H        -1.739426         4.308066         1.340963
 H        -1.874277         3.186087        -1.550277
 H        -0.252857         3.514334        -0.586396
 H        -2.320326         1.044067        -0.762327
 H        -1.572101        -0.584739         2.491438
 H        -2.627922        -0.601847         0.875480
