19
Iteration:  2404
 O         0.297223        -0.378559         0.350775
 C        -0.660101         0.591508         0.736533
 C        -0.396226         1.704606         1.848119
 C        -1.907941         2.075965         1.255308
 C        -2.182703         3.563653         0.619351
 C        -1.277439         2.982276        -0.622479
 C        -1.463007         1.523231        -0.170058
 O        -2.742067         1.063629         1.857598
 C        -1.892072        -0.086773         1.474040
 H        -0.188734        -1.247792         0.194584
 H        -0.170655         1.504718         2.972200
 H         0.272557         2.460310         1.604259
 H        -3.206241         3.781235         0.276902
 H        -1.838392         4.526573         1.094302
 H        -1.952724         3.098154        -1.598186
 H        -0.221581         3.340486        -0.673744
 H        -2.147248         1.003733        -0.778432
 H        -1.656860        -0.720673         2.400890
 H        -2.430656        -0.691849         0.845023
