19
Iteration:  3438
 O         0.343055        -0.404513         0.398224
 C        -0.697745         0.532177         0.760637
 C        -0.448883         1.796522         1.605081
 C        -1.899735         2.075896         1.196697
 C        -2.250981         3.495716         0.594683
 C        -1.240182         3.036371        -0.553390
 C        -1.479381         1.468374        -0.154743
 O        -2.686572         1.123151         1.941061
 C        -1.903969        -0.074882         1.543724
 H        -0.026252        -1.269750         0.282759
 H        -0.310809         1.542871         2.652910
 H         0.337989         2.483442         1.146285
 H        -3.337458         3.356072         0.192321
 H        -1.996970         4.375289         1.283046
 H        -1.388451         3.133211        -1.682548
 H        -0.299379         3.437173        -0.427510
 H        -2.365293         1.047886        -0.714154
 H        -1.625090        -0.590397         2.468638
 H        -2.452424        -0.704275         0.823102
