19
Iteration:   566charge 0 multiplicity 1
 O         0.278639        -0.377232         0.295962
 C        -0.715023         0.584757         0.760127
 C        -0.486925         1.860985         1.575740
 C        -1.926779         2.057699         1.228892
 C        -2.235734         3.414508         0.588989
 C        -1.159428         2.957202        -0.625840
 C        -1.515344         1.476293        -0.129432
 O        -2.637443         1.071025         2.032218
 C        -1.912674        -0.048042         1.541254
 H         0.632278        -0.849518         0.975660
 H        -0.200115         1.904255         2.639063
 H         0.229214         2.419199         0.942786
 H        -3.254515         3.629369         0.263157
 H        -1.899738         4.307217         1.207868
 H        -1.628555         3.258000        -1.624182
 H        -0.156921         3.147007        -0.396750
 H        -2.377020         0.878881        -0.640631
 H        -1.496213        -0.528914         2.565419
 H        -2.700123        -0.640569         0.899814
