19
Iteration:  2986
 O         0.351164        -0.405114         0.497753
 C        -0.647690         0.581273         0.767768
 C        -0.437794         1.773480         1.701840
 C        -1.916469         2.068813         1.219230
 C        -2.144684         3.490042         0.655451
 C        -1.351615         2.994317        -0.612841
 C        -1.529428         1.511817        -0.164029
 O        -2.716630         1.136111         1.889499
 C        -1.901128        -0.092152         1.447176
 H         0.195791        -0.783390        -0.470191
 H        -0.382770         1.367445         2.729703
 H         0.515946         2.268921         1.242915
 H        -3.204506         3.579444         0.348605
 H        -1.764811         4.305422         1.135847
 H        -1.839970         3.374245        -1.486534
 H        -0.221729         3.333985        -0.808216
 H        -2.256905         0.819253        -0.750260
 H        -1.585844        -0.770095         2.226401
 H        -2.476413        -0.849090         0.834153
