19
Iteration:   445charge 0 multiplicity 1
 O         0.282478        -0.345591         0.277677
 C        -0.666186         0.583973         0.749342
 C        -0.395860         1.716035         1.572889
 C        -1.856118         2.092561         1.211673
 C        -2.209586         3.455112         0.594567
 C        -1.296155         2.922443        -0.611406
 C        -1.502750         1.517409        -0.098047
 O        -2.734212         1.139053         1.920751
 C        -1.902789        -0.109030         1.657254
 H         0.644299        -0.723602         1.201459
 H        -0.207971         1.565214         2.732492
 H         0.293003         2.339064         1.153577
 H        -3.271192         3.457195         0.306849
 H        -1.939622         4.442635         0.981840
 H        -1.679026         3.095023        -1.619268
 H        -0.348531         3.402717        -0.292128
 H        -2.330182         0.989604        -0.750669
 H        -1.515780        -0.399088         2.548699
 H        -2.480872        -0.737607         1.001882
