19
Iteration:  2308charge 0 multiplicity 1
 O         0.168473        -0.442433         0.402528
 C        -0.645275         0.591348         0.740132
 C        -0.430442         1.806809         1.725928
 C        -1.845107         2.071722         1.266180
 C        -2.134127         3.488052         0.638634
 C        -1.339564         2.958169        -0.539665
 C        -1.426604         1.488447        -0.148498
 O        -2.746503         1.067345         1.847203
 C        -1.864627        -0.049313         1.424690
 H         1.132934        -0.303216        -0.030967
 H        -0.222074         1.740319         2.790163
 H         0.219495         2.544191         1.436120
 H        -3.217655         3.829009         0.575881
 H        -1.751295         4.272854         1.160430
 H        -1.903500         2.960108        -1.507869
 H        -0.464267         3.467515        -0.665295
 H        -2.146103         0.928051        -0.720704
 H        -1.710443        -0.758238         2.348871
 H        -2.480551        -0.679951         0.692819
