19
Iteration:  1092charge 0 multiplicity 1
 O         0.215225        -0.407463         0.210157
 C        -0.686246         0.590501         0.766736
 C        -0.438452         1.791836         1.811627
 C        -1.902305         2.084689         1.224239
 C        -2.199201         3.414319         0.526413
 C        -1.316801         2.972398        -0.588891
 C        -1.480770         1.480409        -0.170618
 O        -2.622932         1.155380         1.996110
 C        -1.884165        -0.070761         1.538657
 H         0.721516        -0.817110         0.911247
 H        -0.274483         1.488775         2.867908
 H         0.344408         2.500126         1.383905
 H        -3.248285         3.468648         0.105084
 H        -1.949515         4.304133         1.096413
 H        -1.720456         3.111239        -1.574111
 H        -0.231838         3.400047        -0.643509
 H        -2.222351         0.905688        -0.885096
 H        -1.436062        -0.518741         2.427404
 H        -2.582315        -0.700228         1.071083
