19
Iteration:  3969
 O         0.289624        -0.343759         0.327300
 C        -0.636640         0.579983         0.767444
 C        -0.376030         1.786323         1.672062
 C        -1.807979         2.064219         1.189260
 C        -2.292479         3.403724         0.629077
 C        -1.297422         2.975162        -0.623081
 C        -1.462807         1.446797        -0.158680
 O        -2.701738         1.134246         1.916314
 C        -1.967929        -0.039309         1.640485
 H        -0.200362        -1.184570         0.091641
 H        -0.037862         1.860665         2.717847
 H         0.422445         2.357884         1.107901
 H        -3.319380         3.425595         0.338353
 H        -2.068147         4.350147         1.141562
 H        -1.467765         3.177489        -1.802238
 H        -0.304247         3.342960        -0.390127
 H        -2.288910         1.051489        -0.702496
 H        -1.507202        -0.578190         2.545381
 H        -2.552231        -0.782617         1.019494
