19
Iteration:  3777
 O         0.221229        -0.409869         0.363318
 C        -0.692508         0.628265         0.830201
 C        -0.428157         1.790850         1.700843
 C        -1.902881         2.158063         1.268133
 C        -2.128747         3.509362         0.579654
 C        -1.329115         2.880741        -0.709351
 C        -1.629464         1.442486        -0.195030
 O        -2.697708         1.088043         1.941716
 C        -1.779690        -0.092177         1.561650
 H         1.115706        -0.101733         0.243619
 H        -0.081914         1.441172         2.640166
 H         0.261217         2.511338         1.239494
 H        -3.165241         3.735192         0.385920
 H        -1.743120         4.371202         1.074850
 H        -1.810535         3.140995        -1.580004
 H        -0.260867         3.179810        -0.635690
 H        -2.338348         0.683083        -0.632463
 H        -1.392187        -0.585818         2.383305
 H        -2.299527        -0.771469         0.932049
