19
Iteration:  3766charge 0 multiplicity 1
 O         0.197101        -0.393995         0.381369
 C        -0.654240         0.585973         0.692990
 C        -0.371118         1.840308         1.679258
 C        -1.911505         2.056624         1.163594
 C        -2.167683         3.543897         0.625006
 C        -1.350124         2.853018        -0.649348
 C        -1.596216         1.452360        -0.096783
 O        -2.659624         1.084277         1.933205
 C        -1.836232        -0.071601         1.564013
 H         1.027970        -0.073271         0.546798
 H        -0.271080         1.682048         2.741387
 H         0.388566         2.569764         1.364161
 H        -3.166052         3.711799         0.262711
 H        -1.725039         4.339443         1.148607
 H        -1.636530         3.006811        -1.634800
 H        -0.263278         3.070048        -0.693224
 H        -2.488172         1.069419        -0.677329
 H        -1.490616        -0.427062         2.472667
 H        -2.353130        -0.858056         1.052467
