19
Iteration:  1023charge 0 multiplicity 1
 O         0.284257        -0.374141         0.254382
 C        -0.664482         0.538004         0.794033
 C        -0.379154         1.790017         1.793209
 C        -1.840399         2.090797         1.200430
 C        -2.151326         3.565500         0.608370
 C        -1.439683         2.977636        -0.657562
 C        -1.495707         1.419069        -0.177202
 O        -2.646073         1.113644         1.869931
 C        -1.925705        -0.139689         1.615460
 H         0.547570        -0.928609         0.961946
 H        -0.503593         1.608313         2.865569
 H         0.447325         2.417126         1.539164
 H        -3.187209         3.739037         0.522917
 H        -1.685808         4.452272         1.021879
 H        -2.034312         3.254801        -1.645164
 H        -0.516451         3.383095        -0.862196
 H        -2.439178         0.990402        -0.732970
 H        -1.548542        -0.545792         2.542401
 H        -2.544464        -0.831681         1.030476
