19
Iteration:  4915
 O         0.205003        -0.403437         0.307412
 C        -0.701561         0.532672         0.784942
 C        -0.318832         1.910139         1.631653
 C        -1.835498         2.102836         1.169703
 C        -2.256087         3.412567         0.501707
 C        -1.366491         2.897015        -0.638928
 C        -1.547701         1.440486        -0.166106
 O        -2.603468         1.166461         2.057520
 C        -1.906225        -0.020043         1.607030
 H         0.827623        -0.782349         1.067465
 H        -0.200060         1.661519         2.701015
 H         0.625773         2.361944         1.292575
 H        -3.375876         3.393915         0.300876
 H        -2.046280         4.471164         1.003166
 H        -1.547556         3.096514        -1.638481
 H        -0.297048         3.098886        -0.653051
 H        -2.187942         0.852373        -0.724106
 H        -1.734744        -0.733640         2.479085
 H        -2.518533        -0.663902         1.012827
