19
Iteration:  2691charge 0 multiplicity 1
 O         0.401403        -0.358626         0.383190
 C        -0.727304         0.482920         0.735069
 C        -0.475920         1.742981         1.712946
 C        -1.874835         2.045832         1.212231
 C        -2.117544         3.474816         0.630714
 C        -1.293458         3.072027        -0.594443
 C        -1.492671         1.536185        -0.151286
 O        -2.719888         1.143019         1.809069
 C        -1.971454        -0.131725         1.609703
 H         0.323598        -1.154697        -0.317493
 H        -0.394706         1.572633         2.843455
 H         0.214755         2.502517         1.420791
 H        -3.273204         3.457419         0.435280
 H        -1.825217         4.370942         1.266387
 H        -1.876976         3.239285        -1.574737
 H        -0.267121         3.375223        -0.557447
 H        -2.284904         1.095498        -0.722647
 H        -1.480963        -0.558804         2.630482
 H        -2.611746        -0.855575         1.001235
