19
Iteration:   611charge 0 multiplicity 1
 O         0.336745        -0.374747         0.268216
 C        -0.656827         0.548676         0.700217
 C        -0.377643         1.730656         1.832782
 C        -1.879315         2.080385         1.220812
 C        -2.129533         3.398807         0.646269
 C        -1.411231         2.921416        -0.719589
 C        -1.508160         1.483420        -0.144160
 O        -2.732129         1.208510         1.901885
 C        -1.930825        -0.040960         1.576021
 H         0.690130        -0.774523         0.999097
 H        -0.246586         1.511456         2.820255
 H         0.342502         2.580354         1.445943
 H        -3.174329         3.491305         0.417423
 H        -1.867212         4.318920         1.257594
 H        -1.967672         2.922558        -1.742715
 H        -0.473197         3.398156        -0.662401
 H        -2.277305         0.999344        -0.884514
 H        -1.353558        -0.216260         2.564715
 H        -2.639418        -0.771356         1.069071
