19
Iteration:  4352
 O         0.291644        -0.286000         0.253542
 C        -0.690569         0.523727         0.762081
 C        -0.361421         1.793245         1.666346
 C        -1.843298         2.104649         1.208033
 C        -2.249989         3.448078         0.524752
 C        -1.357431         2.848523        -0.726841
 C        -1.508138         1.433200        -0.121362
 O        -2.607719         1.184254         2.009489
 C        -1.938404        -0.056465         1.688187
 H         0.422374        -1.001333         0.999580
 H        -0.441676         1.534867         2.754485
 H         0.330746         2.524440         1.204002
 H        -3.249576         3.488609         0.374481
 H        -1.890507         4.318040         1.091134
 H        -1.843993         3.007348        -1.652884
 H        -0.301017         3.318655        -0.680527
 H        -2.236334         0.913261        -0.847908
 H        -1.608070        -0.589899         2.660318
 H        -2.743596        -0.750686         1.231200
