19
Iteration:  3594
 O         0.251977        -0.393585         0.313970
 C        -0.614172         0.571921         0.780464
 C        -0.485267         1.839460         1.708575
 C        -1.904811         2.064943         1.185688
 C        -2.190566         3.403192         0.553287
 C        -1.342972         2.967230        -0.650289
 C        -1.495665         1.532750        -0.175893
 O        -2.605064         1.122545         1.980734
 C        -1.880962        -0.068459         1.562573
 H         0.036578        -1.234761         0.932659
 H        -0.286120         1.415310         2.710951
 H         0.340809         2.411909         1.278647
 H        -3.215503         3.524848         0.321970
 H        -1.993191         4.462341         1.113496
 H        -1.813624         3.413013        -1.489843
 H        -0.232001         3.168426        -0.459681
 H        -2.180237         0.896799        -0.655941
 H        -1.687351        -0.616135         2.495166
 H        -2.358556        -0.566008         0.822119
