19
Iteration:  3177charge 0 multiplicity 1
 O         0.245643        -0.345973         0.252890
 C        -0.703949         0.540795         0.797177
 C        -0.458968         1.836261         1.693771
 C        -1.860667         2.066892         1.244317
 C        -2.263108         3.410377         0.534389
 C        -1.254821         2.964295        -0.540149
 C        -1.427540         1.468660        -0.206183
 O        -2.690581         1.121729         1.955502
 C        -1.868851        -0.027681         1.584875
 H         0.244208        -1.010147         0.870194
 H        -0.347126         1.557747         2.722937
 H         0.471718         2.254615         1.281863
 H        -3.153069         3.416752        -0.036814
 H        -2.012061         4.262233         1.224357
 H        -1.573523         3.072841        -1.733714
 H        -0.256473         3.338200        -0.511118
 H        -2.179260         1.028241        -0.787108
 H        -1.490998        -0.439429         2.639790
 H        -2.546354        -0.735192         1.055775
