19
Iteration:  4666charge 0 multiplicity 1
 O         0.261942        -0.424725         0.296556
 C        -0.657063         0.563423         0.754612
 C        -0.309315         1.782792         1.603479
 C        -1.859560         2.095912         1.274422
 C        -2.200028         3.421255         0.487742
 C        -1.391768         2.925164        -0.678500
 C        -1.501291         1.433727        -0.124123
 O        -2.702298         1.201189         2.032335
 C        -1.921118        -0.043034         1.624613
 H         0.879639        -0.536272         1.124146
 H        -0.036103         1.698981         2.680423
 H         0.343825         2.566792         1.280103
 H        -3.215771         3.234016         0.243767
 H        -2.218854         4.246678         1.049315
 H        -1.792125         3.235565        -1.619396
 H        -0.310010         3.434109        -0.783445
 H        -2.429393         1.022909        -0.632007
 H        -1.545077        -0.552495         2.514219
 H        -2.565135        -0.658087         0.933808
