19
Iteration:  1136charge 0 multiplicity 1
 O         0.293491        -0.328886         0.280854
 C        -0.751598         0.461448         0.725246
 C        -0.380746         1.788824         1.622263
 C        -1.900880         2.087632         1.224029
 C        -2.158410         3.476896         0.606388
 C        -1.313509         2.982170        -0.543598
 C        -1.502213         1.443845        -0.193251
 O        -2.698185         1.140054         1.916681
 C        -1.923642        -0.130881         1.636224
 H         0.752493        -0.573112         1.118366
 H        -0.163151         1.840868         2.704008
 H         0.449057         2.422979         1.119062
 H        -3.184322         3.773917         0.352608
 H        -1.706164         4.324851         1.102972
 H        -1.848520         3.183904        -1.396358
 H        -0.268728         3.487126        -0.633374
 H        -2.260854         0.831230        -0.793415
 H        -1.615941        -0.542219         2.599642
 H        -2.526307        -0.782388         1.093138
