19
Iteration:   267
 O         0.333580        -0.344268         0.282571
 C        -0.730038         0.471269         0.780161
 C        -0.506140         1.741809         1.575553
 C        -1.875460         2.128295         1.134214
 C        -2.213702         3.451132         0.636720
 C        -1.198446         3.008026        -0.625990
 C        -1.572946         1.440401        -0.198052
 O        -2.621692         1.140618         2.004743
 C        -1.952083        -0.066881         1.663759
 H         0.965260        -0.783569         1.019265
 H        -0.510160         1.673551         2.720260
 H         0.384564         2.403106         1.000142
 H        -3.248221         3.326146         0.276051
 H        -2.041842         4.310171         1.294468
 H        -1.578816         3.369942        -1.575127
 H        -0.093605         3.458541        -0.561081
 H        -2.471520         1.086536        -0.873033
 H        -1.557706        -0.583993         2.539286
 H        -2.667002        -0.822059         1.323254
