19
Iteration:  3859
 O         0.273713        -0.396954         0.412040
 C        -0.695267         0.504538         0.846066
 C        -0.415402         1.777393         1.663801
 C        -1.858262         2.113293         1.194037
 C        -2.276871         3.508629         0.598105
 C        -1.302151         2.974652        -0.668472
 C        -1.543492         1.549495        -0.202788
 O        -2.635289         1.068820         1.969112
 C        -1.814710        -0.052250         1.580559
 H        -0.037710        -1.076964        -0.308323
 H        -0.337518         1.536178         2.781122
 H         0.426407         2.357974         1.315381
 H        -3.230276         3.430348         0.139184
 H        -1.996028         4.449625         1.080644
 H        -1.615389         3.225268        -1.765869
 H        -0.336898         3.409606        -0.759232
 H        -2.289327         1.105908        -0.828443
 H        -1.480906        -0.627767         2.546757
 H        -2.455263        -0.799290         0.937218
