19
Iteration:  4221
 O         0.361991        -0.370306         0.396316
 C        -0.725099         0.566461         0.711812
 C        -0.436738         1.756844         1.611770
 C        -1.893738         2.089318         1.250238
 C        -2.182168         3.482910         0.515608
 C        -1.323517         2.966975        -0.627311
 C        -1.581647         1.455691        -0.136086
 O        -2.650911         1.124256         2.013578
 C        -1.853741        -0.036390         1.594133
 H         0.157073        -1.245331         0.267349
 H        -0.177603         1.591229         2.719618
 H         0.263250         2.473708         1.129579
 H        -3.308875         3.415630         0.090506
 H        -2.016389         4.530745         0.914518
 H        -1.718322         3.108714        -1.642117
 H        -0.205563         3.234856        -0.647365
 H        -2.455186         0.958339        -0.700053
 H        -1.492560        -0.485899         2.526973
 H        -2.473693        -0.754653         1.109270
