19
Iteration:  3883
 O         0.356972        -0.348427         0.372079
 C        -0.640472         0.566539         0.698562
 C        -0.404087         1.826376         1.664459
 C        -1.867299         2.041949         1.245980
 C        -2.209012         3.413644         0.701445
 C        -1.343559         2.951190        -0.648021
 C        -1.540757         1.419427        -0.204825
 O        -2.697697         1.179957         1.901599
 C        -1.921349        -0.042162         1.595058
 H         0.054036        -1.207804         0.296373
 H        -0.248446         1.562913         2.696650
 H         0.357157         2.530248         1.315682
 H        -3.229225         3.647349         0.307970
 H        -1.713498         4.172901         1.211593
 H        -1.639301         3.167458        -1.693953
 H        -0.346770         3.365479        -0.687787
 H        -2.237055         0.834562        -0.765813
 H        -1.712798        -0.551522         2.611077
 H        -2.725112        -0.676342         1.059881
