19
Iteration:   967charge 0 multiplicity 1
 O         0.327978        -0.328064         0.275763
 C        -0.772263         0.513910         0.730468
 C        -0.499341         1.707104         1.595755
 C        -1.902816         2.077812         1.201969
 C        -2.230060         3.438848         0.590831
 C        -1.220639         2.966903        -0.568744
 C        -1.585729         1.455100        -0.151816
 O        -2.594508         1.164762         1.973109
 C        -1.868981        -0.048560         1.592320
 H         0.706242        -0.568982         1.103811
 H        -0.327958         1.514725         2.629010
 H         0.384459         2.287645         1.144959
 H        -3.283177         3.441038         0.374465
 H        -1.933590         4.379888         1.109937
 H        -1.498384         3.266802        -1.638246
 H        -0.219556         3.311207        -0.177434
 H        -2.555364         1.252586        -0.786005
 H        -1.433783        -0.531833         2.495990
 H        -2.630950        -0.805255         1.226238
