19
Iteration:  4689
 O         0.292627        -0.309172         0.322369
 C        -0.701923         0.470704         0.756926
 C        -0.416112         1.726828         1.633001
 C        -1.843980         2.071940         1.185607
 C        -2.280094         3.442285         0.584812
 C        -1.367974         2.902663        -0.668095
 C        -1.568319         1.384063        -0.169985
 O        -2.561063         1.250667         1.984153
 C        -1.926414        -0.023439         1.629901
 H         1.001469        -0.478136         1.002675
 H        -0.259084         1.725325         2.729549
 H         0.500781         2.144060         1.274455
 H        -3.275502         3.626783         0.332289
 H        -1.880181         4.260774         1.091104
 H        -1.582638         3.135777        -1.725202
 H        -0.200394         3.191159        -0.671435
 H        -2.542342         0.996263        -0.669948
 H        -1.512140        -0.413780         2.545052
 H        -2.714034        -0.682431         1.119240
