19
Iteration:  4093charge 0 multiplicity 1
 O         0.254826        -0.425445         0.297123
 C        -0.707009         0.536851         0.782099
 C        -0.394591         1.836932         1.627473
 C        -1.858065         2.152860         1.177509
 C        -2.263519         3.454783         0.589347
 C        -1.273070         2.891593        -0.580349
 C        -1.587549         1.407486        -0.175817
 O        -2.655950         1.170241         1.969339
 C        -1.854748        -0.100218         1.615131
 H         1.078861        -0.247134         0.864853
 H        -0.170598         1.784257         2.698585
 H         0.274386         2.497491         1.126245
 H        -3.308965         3.415950         0.282117
 H        -2.006709         4.307296         1.066809
 H        -1.565770         3.207508        -1.527210
 H        -0.284401         3.433563        -0.584067
 H        -2.354832         1.003614        -0.750037
 H        -1.372701        -0.605555         2.519245
 H        -2.628357        -0.614616         0.975400
