19
Iteration:  4123
 O         0.225716        -0.408941         0.319329
 C        -0.664033         0.586226         0.767949
 C        -0.380173         1.805833         1.680292
 C        -1.916518         2.129475         1.163865
 C        -2.260752         3.412368         0.588136
 C        -1.267384         2.947921        -0.712924
 C        -1.517900         1.440054        -0.173212
 O        -2.623387         1.117376         2.050415
 C        -1.872938        -0.032524         1.580699
 H         0.648041        -0.661706         1.089315
 H        -0.271045         1.628352         2.733901
 H         0.188002         2.566225         1.162073
 H        -3.372611         3.467751         0.367289
 H        -1.885471         4.230320         1.235449
 H        -1.850923         3.066442        -1.673643
 H        -0.286130         3.466133        -0.741874
 H        -2.255709         1.018377        -0.827691
 H        -1.462932        -0.726289         2.324211
 H        -2.546437        -0.595694         1.038734
