19
Iteration:  4788charge 0 multiplicity 1
 O         0.276193        -0.391280         0.320091
 C        -0.707297         0.550390         0.773445
 C        -0.290404         1.778942         1.551612
 C        -1.890212         2.164500         1.246873
 C        -2.281918         3.406540         0.516529
 C        -1.359310         2.894390        -0.610786
 C        -1.517373         1.426739        -0.192645
 O        -2.614656         1.198935         2.068140
 C        -1.905525        -0.026076         1.613431
 H         0.608119        -0.946126         1.067774
 H        -0.119818         1.598108         2.636313
 H         0.305043         2.574737         1.063693
 H        -3.248248         3.319835         0.051790
 H        -2.140554         4.340081         0.970477
 H        -1.770438         3.210120        -1.629340
 H        -0.257358         3.322708        -0.428182
 H        -2.351656         0.754494        -0.677842
 H        -1.609737        -0.619394         2.470476
 H        -2.588376        -0.550348         0.845599
