19
Iteration:  2569charge 0 multiplicity 1
 O         0.268261        -0.515047         0.482465
 C        -0.724618         0.513888         0.712024
 C        -0.433858         1.785501         1.637405
 C        -1.893707         2.088206         1.146000
 C        -2.172986         3.551095         0.637175
 C        -1.307637         3.135273        -0.608720
 C        -1.498263         1.552271        -0.226784
 O        -2.705811         0.967878         1.956014
 C        -1.882516        -0.057355         1.503829
 H         1.138036        -0.079928         0.724368
 H        -0.216685         1.602060         2.638606
 H         0.418006         2.465881         1.213923
 H        -3.219073         3.808889         0.196539
 H        -1.762527         4.178985         1.349381
 H        -1.757619         3.338110        -1.600790
 H        -0.320484         3.337799        -0.388160
 H        -2.230662         1.063311        -0.755049
 H        -1.536891        -0.731489         2.436543
 H        -2.570498        -0.797280         0.919961
