19
Iteration:  3502charge 0 multiplicity 1
 O         0.281983        -0.374249         0.418105
 C        -0.701355         0.607359         0.787211
 C        -0.437831         1.855907         1.718175
 C        -1.942484         2.087504         1.192672
 C        -2.074778         3.458546         0.623126
 C        -1.289039         2.984217        -0.634368
 C        -1.506275         1.387551        -0.192809
 O        -2.701665         1.069787         1.943414
 C        -1.918803        -0.115264         1.527168
 H         0.573936        -0.067788        -0.511086
 H        -0.299507         1.636583         2.745958
 H         0.237463         2.485906         1.101449
 H        -3.134874         3.811155         0.357990
 H        -1.689039         4.258808         1.228673
 H        -1.737228         3.203222        -1.635625
 H        -0.253493         3.105999        -0.577487
 H        -2.470179         0.822360        -0.599029
 H        -1.603617        -0.543110         2.403025
 H        -2.478106        -0.768084         0.818588
