19
Iteration:  3845
 O         0.295110        -0.429185         0.457079
 C        -0.692282         0.619046         0.653368
 C        -0.365932         1.784211         1.643276
 C        -1.919806         2.095000         1.275983
 C        -2.274092         3.429152         0.580785
 C        -1.207451         3.014752        -0.721978
 C        -1.540571         1.510349        -0.156815
 O        -2.646601         1.110337         1.972533
 C        -1.899541        -0.110513         1.625811
 H         0.072232        -0.691708        -0.426375
 H        -0.129519         1.630727         2.732498
 H         0.318918         2.542950         1.189002
 H        -3.260171         3.414846         0.281569
 H        -2.248374         4.372559         1.237933
 H        -1.752271         3.111890        -1.652552
 H        -0.142696         3.258431        -0.516408
 H        -2.414150         1.035304        -0.697572
 H        -1.469668        -0.612442         2.477940
 H        -2.564489        -0.796887         1.064412
