19
Iteration:  1118
 O         0.265180        -0.353636         0.247913
 C        -0.663261         0.582647         0.820258
 C        -0.334469         1.704288         1.698298
 C        -1.846429         2.087802         1.216329
 C        -2.197132         3.424480         0.653357
 C        -1.339090         2.933293        -0.648394
 C        -1.558449         1.469216        -0.109238
 O        -2.738884         1.156112         1.839642
 C        -1.892150        -0.004103         1.586614
 H         0.922623        -0.744996         0.870754
 H        -0.103243         1.436444         2.751235
 H         0.399944         2.433437         1.233604
 H        -3.339322         3.341736         0.406508
 H        -1.912757         4.366919         1.241858
 H        -1.593881         3.169620        -1.696552
 H        -0.220455         3.259577        -0.624708
 H        -2.486094         1.068364        -0.510446
 H        -1.609583        -0.458136         2.579829
 H        -2.526074        -0.812729         1.093009
