19
Iteration:  4901charge 0 multiplicity 1
 O         0.237596        -0.406122         0.281357
 C        -0.674328         0.598871         0.770927
 C        -0.459448         1.794437         1.646924
 C        -1.920028         2.122720         1.273610
 C        -2.169040         3.423772         0.479839
 C        -1.290313         2.874921        -0.691184
 C        -1.576588         1.393389        -0.169532
 O        -2.566313         1.169344         2.118089
 C        -1.889204        -0.030898         1.585772
 H         0.795312        -0.659194         1.015095
 H        -0.284768         1.845614         2.735369
 H         0.057984         2.607592         1.195731
 H        -3.194768         3.461174         0.121832
 H        -1.898714         4.383321         0.879848
 H        -1.746923         3.137615        -1.713675
 H        -0.318353         3.340778        -0.621571
 H        -2.428269         0.936299        -0.713885
 H        -1.436710        -0.606712         2.419769
 H        -2.551850        -0.519959         0.899279
