19
Iteration:  2557charge 0 multiplicity 1
 O         0.231815        -0.425757         0.471664
 C        -0.681265         0.571548         0.711238
 C        -0.464019         1.722886         1.656136
 C        -1.905583         2.060643         1.177002
 C        -2.153243         3.533184         0.628932
 C        -1.269522         3.059504        -0.602356
 C        -1.553760         1.516605        -0.276063
 O        -2.674087         1.050870         1.971459
 C        -1.903654        -0.151203         1.531858
 H         1.210098        -0.034694         0.573830
 H        -0.413014         1.517537         2.704083
 H         0.284119         2.485251         1.284139
 H        -3.284805         3.712761         0.522073
 H        -1.795223         4.402057         1.149337
 H        -1.409825         3.421452        -1.598353
 H        -0.280542         3.439322        -0.444494
 H        -2.207921         1.107922        -0.994223
 H        -1.364123        -0.744291         2.370862
 H        -2.514125        -0.808580         0.786732
