19
Iteration:  1605
 O         0.234150        -0.361450         0.222327
 C        -0.700169         0.634561         0.779110
 C        -0.428872         1.790021         1.785403
 C        -1.878859         2.043332         1.236500
 C        -2.167776         3.445668         0.612304
 C        -1.307516         2.914258        -0.591064
 C        -1.472827         1.520659        -0.112049
 O        -2.700272         1.091354         1.874130
 C        -1.865164        -0.026856         1.518674
 H         0.054881        -1.157760         0.774296
 H        -0.094100         1.637233         2.847030
 H         0.389134         2.424206         1.421774
 H        -3.233192         3.529383         0.348019
 H        -1.810958         4.331976         1.248535
 H        -1.598996         3.135237        -1.614928
 H        -0.250544         3.156689        -0.395351
 H        -2.272298         1.017288        -0.680954
 H        -1.495839        -0.632931         2.295582
 H        -2.394009        -0.706949         0.820896
