19
Iteration:  4220charge 0 multiplicity 1
 O         0.366804        -0.369743         0.394166
 C        -0.729090         0.568136         0.710678
 C        -0.434268         1.762927         1.615544
 C        -1.903980         2.090978         1.252095
 C        -2.189235         3.491566         0.510891
 C        -1.310231         2.962372        -0.628797
 C        -1.587650         1.453925        -0.135364
 O        -2.651464         1.132077         2.016021
 C        -1.840164        -0.044775         1.591192
 H         0.094531        -1.262304         0.304840
 H        -0.248181         1.571617         2.707441
 H         0.271536         2.451933         1.119210
 H        -3.274686         3.399371         0.148174
 H        -1.995997         4.535050         0.930607
 H        -1.727844         3.144752        -1.646639
 H        -0.224698         3.215040        -0.647278
 H        -2.457133         0.918481        -0.710969
 H        -1.472227        -0.519447         2.491061
 H        -2.484985        -0.799822         1.113950
