19
Iteration:  1991
 O         0.291345        -0.420176         0.358169
 C        -0.693197         0.536023         0.714917
 C        -0.424620         1.718791         1.763075
 C        -1.819966         2.108211         1.216649
 C        -2.215520         3.430288         0.679435
 C        -1.323059         2.963781        -0.572691
 C        -1.478378         1.479794        -0.222241
 O        -2.723214         1.174139         1.867976
 C        -1.926170        -0.028218         1.512354
 H         1.191388        -0.021042         0.324493
 H        -0.455947         1.460944         2.784716
 H         0.477407         2.355563         1.423805
 H        -3.270643         3.341848         0.301070
 H        -1.951630         4.301686         1.223699
 H        -1.698656         3.188856        -1.532378
 H        -0.322774         3.483058        -0.604172
 H        -2.254113         0.912031        -0.764021
 H        -1.514251        -0.508283         2.340869
 H        -2.738704        -0.816023         1.145246
