19
Iteration:  2025
 O         0.248330        -0.424679         0.368807
 C        -0.667695         0.539648         0.828278
 C        -0.429337         1.745865         1.731241
 C        -1.884243         2.109713         1.238738
 C        -2.142894         3.464157         0.617368
 C        -1.258308         3.006549        -0.623109
 C        -1.473358         1.484920        -0.144995
 O        -2.796565         1.103658         1.888850
 C        -1.854586        -0.071808         1.504600
 H         0.799939        -0.037523        -0.442766
 H        -0.288912         1.587236         2.787979
 H         0.436372         2.297510         1.307753
 H        -3.242037         3.483418         0.426687
 H        -2.039440         4.367158         1.112792
 H        -1.803671         3.170973        -1.565184
 H        -0.305797         3.530004        -0.601395
 H        -2.310475         1.016280        -0.736258
 H        -1.523566        -0.585168         2.368140
 H        -2.444801        -0.779574         0.763022
