19
Iteration:  3284
 O         0.232436        -0.424662         0.387228
 C        -0.666776         0.576308         0.796954
 C        -0.325063         1.744722         1.653972
 C        -1.856288         2.078758         1.180263
 C        -2.190050         3.391871         0.627011
 C        -1.311884         2.962895        -0.611377
 C        -1.556707         1.510601        -0.217847
 O        -2.729833         1.136571         1.870403
 C        -1.896573        -0.019185         1.574044
 H         0.997720        -0.155659         0.807637
 H        -0.212427         1.584807         2.743382
 H         0.494196         2.458092         1.351722
 H        -3.248443         3.556125         0.456284
 H        -2.033781         4.343809         1.185080
 H        -1.673272         3.229665        -1.679798
 H        -0.342558         3.359382        -0.419174
 H        -2.348218         0.997693        -0.815368
 H        -1.569140        -0.606160         2.441344
 H        -2.486194        -0.846026         1.126761
