19
Iteration:  2286charge 0 multiplicity 1
 O         0.264674        -0.497022         0.399098
 C        -0.692356         0.547451         0.750647
 C        -0.395042         1.742997         1.727663
 C        -1.884514         2.024594         1.181493
 C        -2.179011         3.433487         0.727621
 C        -1.301209         3.094860        -0.657825
 C        -1.519314         1.527328        -0.226363
 O        -2.697230         1.116743         1.881612
 C        -1.901607        -0.022024         1.503163
 H         1.109926        -0.197300         0.443690
 H        -0.427332         1.591569         2.811378
 H         0.385427         2.374650         1.575943
 H        -3.206665         3.683218         0.293218
 H        -1.959107         4.267938         1.282899
 H        -1.907355         3.465513        -1.511009
 H        -0.328935         3.398173        -0.671390
 H        -2.205295         0.942479        -0.804360
 H        -1.553057        -0.616133         2.468318
 H        -2.528279        -0.749099         0.902562
