19
Iteration:   391charge 0 multiplicity 1
 O         0.297941        -0.347593         0.260278
 C        -0.716397         0.559177         0.817963
 C        -0.430447         1.748345         1.678350
 C        -1.924457         2.081275         1.198074
 C        -2.210321         3.499612         0.526052
 C        -1.272141         2.993835        -0.596713
 C        -1.550658         1.415855        -0.152431
 O        -2.677604         1.134695         2.021667
 C        -1.841174        -0.092049         1.577529
 H         0.559779        -1.074319         0.984020
 H        -0.097209         1.624756         2.811554
 H         0.324173         2.284189         1.226706
 H        -3.207950         3.694631         0.109278
 H        -1.860525         4.398986         1.045979
 H        -1.730448         3.175872        -1.611683
 H        -0.274701         3.516588        -0.742596
 H        -2.343269         0.876983        -0.885195
 H        -1.425819        -0.612854         2.398033
 H        -2.539860        -0.680973         0.930006
