19
Iteration:  2786
 O         0.315865        -0.252200         0.326562
 C        -0.730176         0.533675         0.705260
 C        -0.459289         1.726211         1.770361
 C        -1.848103         2.075284         1.269146
 C        -2.111024         3.408774         0.616197
 C        -1.200716         2.930579        -0.605846
 C        -1.523153         1.493897        -0.148348
 O        -2.784807         1.076950         1.855723
 C        -1.913597        -0.033170         1.588508
 H         0.184648        -0.661876        -0.463133
 H        -0.286664         1.443107         2.802857
 H         0.261738         2.522880         1.482685
 H        -3.234323         3.352981         0.305394
 H        -1.962545         4.358897         0.931286
 H        -1.268461         3.347457        -1.651977
 H        -0.266697         3.140294        -0.160396
 H        -2.437659         1.086250        -0.746136
 H        -1.454972        -0.386424         2.463121
 H        -2.614804        -0.753652         1.139198
