19
Iteration:  4947charge 0 multiplicity 1
 O         0.266768        -0.451709         0.337826
 C        -0.653956         0.485540         0.730315
 C        -0.354525         1.809317         1.610548
 C        -1.843233         2.147102         1.227272
 C        -2.203383         3.383506         0.551997
 C        -1.415745         2.995881        -0.663236
 C        -1.507164         1.463318        -0.193080
 O        -2.715934         1.189445         1.937139
 C        -1.866063         0.013249         1.717965
 H         0.573785        -1.010345         0.976760
 H        -0.088039         1.616225         2.659831
 H         0.482833         2.329506         1.115544
 H        -3.287053         3.117069         0.422611
 H        -2.083507         4.419068         1.076199
 H        -1.865840         3.082424        -1.622118
 H        -0.348753         3.239344        -0.653129
 H        -2.259756         1.019112        -0.787698
 H        -1.357788        -0.213243         2.742997
 H        -2.468261        -0.706356         1.244814
