19
Iteration:  4406charge 0 multiplicity 1
 O         0.268008        -0.377508         0.309776
 C        -0.720000         0.502527         0.784039
 C        -0.421117         1.803419         1.602093
 C        -1.883314         2.069474         1.151688
 C        -2.238743         3.410996         0.594630
 C        -1.357129         2.929385        -0.655724
 C        -1.521837         1.418514        -0.226898
 O        -2.654077         1.209538         2.007539
 C        -1.782689         0.010846         1.664454
 H         0.676669        -0.895987         1.123863
 H        -0.215731         1.741574         2.712129
 H         0.414165         2.241153         1.003925
 H        -3.258607         3.462628         0.321748
 H        -1.880187         4.245250         1.360645
 H        -1.748078         3.264662        -1.580494
 H        -0.324401         3.435674        -0.716374
 H        -2.367953         0.990775        -0.896041
 H        -1.509508        -0.406327         2.675932
 H        -2.527944        -0.863137         1.302580
