19
Iteration:  3618
 O         0.345708        -0.299206         0.355649
 C        -0.750437         0.523962         0.732657
 C        -0.408892         1.815861         1.635201
 C        -1.882906         2.113759         1.243138
 C        -2.156193         3.462949         0.571503
 C        -1.313624         2.927401        -0.615180
 C        -1.511428         1.464138        -0.189802
 O        -2.728557         1.121311         1.985956
 C        -1.873261        -0.098619         1.584525
 H         0.090118        -1.268074         0.235120
 H        -0.415092         1.604548         2.717903
 H         0.580819         2.174307         1.182182
 H        -3.256158         3.556140         0.496099
 H        -1.922402         4.534416         1.065724
 H        -1.749222         2.963215        -1.644093
 H        -0.213207         3.252126        -0.482200
 H        -2.284844         1.020048        -0.768841
 H        -1.561902        -0.495073         2.588277
 H        -2.395510        -0.733945         0.963070
