19
Iteration:  1349
 O         0.231952        -0.415768         0.287175
 C        -0.740371         0.617436         0.683954
 C        -0.434040         1.849523         1.661558
 C        -1.900589         2.061022         1.219279
 C        -2.227646         3.473036         0.626968
 C        -1.173833         2.936890        -0.584389
 C        -1.584404         1.462720        -0.212109
 O        -2.641541         1.096403         1.985747
 C        -1.871503        -0.105289         1.571602
 H         0.911949        -0.542631         1.087599
 H        -0.405538         1.809835         2.861015
 H         0.293697         2.569222         1.282841
 H        -3.293070         3.584645         0.139106
 H        -1.833741         4.435212         1.207195
 H        -1.296170         3.294233        -1.709340
 H        -0.188800         3.130816        -0.326699
 H        -2.399744         0.994865        -0.728256
 H        -1.485004        -0.643477         2.447458
 H        -2.581780        -0.802839         1.125068
