19
Iteration:  4835
 O         0.235905        -0.392291         0.282454
 C        -0.608522         0.581643         0.727150
 C        -0.348953         1.773523         1.671207
 C        -1.913836         2.073029         1.215536
 C        -2.183663         3.536130         0.531774
 C        -1.348969         2.913351        -0.677670
 C        -1.559797         1.399101        -0.195950
 O        -2.697562         1.128656         2.001729
 C        -1.850729         0.006626         1.690383
 H         0.823004        -0.832282         1.073262
 H        -0.215060         1.643223         2.739285
 H         0.342364         2.413544         1.124349
 H        -3.261316         3.485883         0.419133
 H        -1.823562         4.365733         1.089496
 H        -2.030420         2.968467        -1.607323
 H        -0.385756         3.322795        -0.834939
 H        -2.224568         0.708311        -0.704098
 H        -1.524467        -0.281786         2.710006
 H        -2.557055        -0.706422         1.250894
