19
Iteration:  3367
 O         0.379529        -0.277073         0.402589
 C        -0.629062         0.529405         0.766935
 C        -0.400280         1.715534         1.632086
 C        -1.893778         2.108350         1.190104
 C        -2.158939         3.466358         0.616308
 C        -1.257209         2.997239        -0.652508
 C        -1.553592         1.449856        -0.160521
 O        -2.761234         1.095425         1.901810
 C        -1.995034        -0.102276         1.639285
 H         0.054726        -1.000872        -0.170436
 H        -0.219093         1.465632         2.715697
 H         0.246733         2.506132         1.335097
 H        -3.161214         3.660186         0.299186
 H        -1.654094         4.204563         1.176492
 H        -1.595715         3.326090        -1.593750
 H        -0.151335         3.359238        -0.569725
 H        -2.450581         0.978371        -0.591707
 H        -1.708143        -0.591303         2.543716
 H        -2.612258        -0.704694         0.969316
