19
Iteration:  3929
 O         0.361271        -0.308981         0.342755
 C        -0.743401         0.538451         0.763540
 C        -0.470604         1.779540         1.708974
 C        -1.904909         2.107189         1.146521
 C        -2.129496         3.533934         0.593604
 C        -1.317676         2.912538        -0.682145
 C        -1.594598         1.527758        -0.224441
 O        -2.635325         1.048092         1.983578
 C        -1.876274        -0.107195         1.607071
 H         0.044208        -1.198574         0.615102
 H        -0.456008         1.683800         2.743172
 H         0.250580         2.551828         1.393931
 H        -3.274543         3.688076         0.603024
 H        -1.598327         4.250501         1.162803
 H        -1.380643         3.188090        -1.652516
 H        -0.242117         3.193056        -0.616486
 H        -2.457205         1.010781        -0.653798
 H        -1.559428        -0.594236         2.558087
 H        -2.510017        -0.834437         1.025227
