19
Iteration:  2887charge 0 multiplicity 1
 O         0.295837        -0.416690         0.455009
 C        -0.626680         0.512645         0.806653
 C        -0.372913         1.736397         1.677374
 C        -1.870311         2.042641         1.174020
 C        -2.213767         3.409227         0.625106
 C        -1.320408         3.126638        -0.608934
 C        -1.428657         1.552659        -0.181852
 O        -2.722065         1.079825         1.909121
 C        -1.954782        -0.047208         1.520833
 H        -0.041523        -0.918324        -0.417355
 H        -0.337973         1.765916         2.827078
 H         0.338215         2.486314         1.276877
 H        -3.304467         3.568052         0.283202
 H        -1.967888         4.241645         1.300575
 H        -1.648181         3.414873        -1.637199
 H        -0.251033         3.519380        -0.635263
 H        -2.141333         0.921705        -0.845951
 H        -1.831023        -0.630101         2.418291
 H        -2.555138        -0.710573         0.815813
