19
Iteration:  2061
 O         0.294692        -0.414597         0.473591
 C        -0.736836         0.554276         0.743086
 C        -0.505455         1.797217         1.626655
 C        -1.952151         2.065958         1.098892
 C        -2.158249         3.489471         0.659976
 C        -1.190324         3.034646        -0.521992
 C        -1.561722         1.450349        -0.243761
 O        -2.676970         1.085871         2.000208
 C        -1.857029        -0.084671         1.501098
 H         0.563943        -0.163682        -0.495489
 H        -0.527385         1.627121         2.732693
 H         0.323462         2.294924         1.204883
 H        -3.160772         3.612538         0.352490
 H        -1.739652         4.248991         1.310317
 H        -1.338759         3.475852        -1.572490
 H        -0.135009         3.288682        -0.425608
 H        -2.396120         1.061466        -0.892835
 H        -1.513058        -0.815783         2.385464
 H        -2.438285        -0.793534         0.824275
