19
Iteration:  3283
 O         0.235421        -0.427363         0.384578
 C        -0.672851         0.578031         0.799667
 C        -0.322780         1.745718         1.650129
 C        -1.858697         2.070266         1.185791
 C        -2.195143         3.393720         0.626912
 C        -1.311610         2.963220        -0.621750
 C        -1.550128         1.504199        -0.222561
 O        -2.732122         1.143234         1.873629
 C        -1.895377        -0.025405         1.571627
 H         1.036951        -0.143713         0.847256
 H        -0.210614         1.593540         2.758209
 H         0.474519         2.450328         1.371902
 H        -3.293389         3.592925         0.447906
 H        -1.989996         4.347737         1.189352
 H        -1.680917         3.297194        -1.596552
 H        -0.310409         3.351988        -0.414015
 H        -2.374603         0.967690        -0.798374
 H        -1.547407        -0.563308         2.429767
 H        -2.498611        -0.842245         1.110622
