19
Iteration:  2700
 O         0.386685        -0.353667         0.435275
 C        -0.678629         0.463390         0.772393
 C        -0.426099         1.707358         1.698173
 C        -1.858976         2.089676         1.228676
 C        -2.153268         3.491713         0.640894
 C        -1.358781         3.060602        -0.601781
 C        -1.490968         1.572656        -0.189925
 O        -2.729357         1.092338         1.798605
 C        -1.928351        -0.137782         1.561252
 H         0.015727        -1.236009        -0.065068
 H        -0.351968         1.442574         2.741376
 H         0.452845         2.329317         1.377232
 H        -3.242513         3.864688         0.372935
 H        -1.763014         4.374430         1.062210
 H        -1.685390         3.433167        -1.594086
 H        -0.457795         3.579939        -0.624404
 H        -2.370966         1.078835        -0.543833
 H        -1.707069        -0.581627         2.517580
 H        -2.674888        -0.807954         1.059943
