19
Iteration:   333
 O         0.253550        -0.413805         0.269979
 C        -0.650827         0.542134         0.805156
 C        -0.411758         1.811076         1.705056
 C        -1.885452         2.083506         1.219838
 C        -2.191065         3.523968         0.583396
 C        -1.343005         2.986317        -0.721655
 C        -1.454042         1.483231        -0.145531
 O        -2.673406         1.097763         1.954507
 C        -1.940691        -0.111046         1.646314
 H         0.846989        -0.746836         0.867375
 H        -0.415286         1.437662         2.760604
 H         0.291012         2.646248         1.272157
 H        -3.244484         3.822114         0.380778
 H        -1.666390         4.341481         1.073387
 H        -1.987800         2.948651        -1.557337
 H        -0.339108         3.579451        -0.782216
 H        -2.197415         0.890951        -0.811312
 H        -1.475757        -0.673931         2.458975
 H        -2.588888        -0.752845         0.994449
