19
Iteration:   864charge 0 multiplicity 1
 O         0.359759        -0.292926         0.326382
 C        -0.716461         0.505928         0.729305
 C        -0.421041         1.739577         1.607360
 C        -1.904765         2.054262         1.186786
 C        -2.192618         3.484391         0.667823
 C        -1.274792         2.974998        -0.568614
 C        -1.644879         1.405840        -0.247070
 O        -2.610981         1.154855         1.970450
 C        -1.936194        -0.043334         1.593747
 H         0.547857        -1.010528         1.029655
 H        -0.346886         1.619396         2.743658
 H         0.267992         2.405746         1.255547
 H        -3.228006         3.553108         0.185386
 H        -1.928551         4.252700         1.367486
 H        -1.807725         3.322523        -1.471120
 H        -0.148818         3.174760        -0.659608
 H        -2.248813         1.040210        -1.016985
 H        -1.445825        -0.554844         2.548408
 H        -2.566166        -0.781411         0.994567
