19
Iteration:   869
 O         0.362796        -0.290123         0.338187
 C        -0.716008         0.518292         0.703769
 C        -0.434506         1.712512         1.644778
 C        -1.922224         2.063975         1.182507
 C        -2.194466         3.488455         0.684409
 C        -1.281841         2.981823        -0.632948
 C        -1.596737         1.416875        -0.244522
 O        -2.633129         1.176116         1.999234
 C        -1.925756        -0.104257         1.600051
 H         0.528185        -0.960902         0.957689
 H        -0.324620         1.620636         2.704315
 H         0.413859         2.339374         1.134976
 H        -3.171532         3.583423         0.258579
 H        -1.871033         4.365937         1.311635
 H        -1.850497         3.315941        -1.507850
 H        -0.204853         3.274033        -0.575561
 H        -2.315703         1.037046        -1.116931
 H        -1.478652        -0.562867         2.418860
 H        -2.555671        -0.848772         1.119874
