19
Iteration:  4280charge 0 multiplicity 1
 O         0.258263        -0.497111         0.412683
 C        -0.690912         0.627320         0.738104
 C        -0.421209         1.843989         1.664894
 C        -1.934089         2.090217         1.229927
 C        -2.171530         3.435767         0.581037
 C        -1.340745         2.971331        -0.773773
 C        -1.556747         1.503736        -0.169959
 O        -2.653287         1.112988         2.026021
 C        -1.842305        -0.089842         1.636840
 H         1.048658        -0.155394        -0.193135
 H        -0.275443         1.637867         2.752042
 H         0.346268         2.513057         1.215568
 H        -3.348247         3.666832         0.324368
 H        -1.744884         4.340584         1.028878
 H        -1.782366         2.901175        -1.791974
 H        -0.289038         3.313207        -0.824770
 H        -2.310036         0.990853        -0.709298
 H        -1.450818        -0.506572         2.579055
 H        -2.403802        -0.882630         1.086238
