19
Iteration:  2489charge 0 multiplicity 1
 O         0.289397        -0.333947         0.361478
 C        -0.710734         0.567741         0.737081
 C        -0.476060         1.741908         1.773357
 C        -1.863235         2.118462         1.182466
 C        -2.182657         3.481065         0.657752
 C        -1.170452         2.955088        -0.585435
 C        -1.516127         1.512521        -0.178603
 O        -2.721653         1.046579         1.887854
 C        -1.871992        -0.074991         1.546007
 H        -0.011547        -0.673638        -0.523064
 H        -0.653291         1.470374         2.892020
 H         0.289567         2.405664         1.597797
 H        -3.189762         3.459204         0.308389
 H        -2.033268         4.534341         1.092789
 H        -1.403263         3.160604        -1.546325
 H        -0.131534         3.356527        -0.709981
 H        -2.289371         0.924133        -0.739015
 H        -1.646455        -0.481311         2.490166
 H        -2.531159        -0.910868         0.922445
