19
Iteration:  3732charge 0 multiplicity 1
 O         0.280097        -0.397042         0.363850
 C        -0.678451         0.517716         0.714643
 C        -0.294881         1.677538         1.587652
 C        -1.941205         2.009870         1.148121
 C        -2.250448         3.479210         0.619309
 C        -1.327757         3.057786        -0.651186
 C        -1.458625         1.439098        -0.206778
 O        -2.700065         1.220303         2.029918
 C        -1.918083        -0.081237         1.656644
 H         1.121295        -0.212701         0.618798
 H        -0.301213         1.657441         2.665085
 H         0.294384         2.415794         1.127434
 H        -3.365828         3.507857         0.343297
 H        -2.276124         4.322621         1.182377
 H        -1.691960         3.181571        -1.648954
 H        -0.304436         3.283547        -0.522348
 H        -2.221229         0.892607        -0.854975
 H        -1.546390        -0.424478         2.569093
 H        -2.571899        -0.730431         1.161202
