19
Iteration:  2714
 O         0.338277        -0.384810         0.505486
 C        -0.687841         0.570565         0.774578
 C        -0.356074         1.650054         1.703152
 C        -1.842384         2.101137         1.175411
 C        -2.188761         3.546700         0.662617
 C        -1.352159         3.079330        -0.629140
 C        -1.540769         1.510840        -0.175435
 O        -2.727000         1.060601         1.829286
 C        -1.921990        -0.057639         1.451441
 H        -0.037450        -1.165762         0.254707
 H        -0.154484         1.466003         2.837355
 H         0.384061         2.265857         1.302251
 H        -3.306060         3.597142         0.579683
 H        -1.764522         4.368936         1.400387
 H        -1.910454         3.132551        -1.620426
 H        -0.279369         3.312556        -0.594814
 H        -2.290340         1.092370        -0.814386
 H        -1.433801        -0.626092         2.434593
 H        -2.322327        -0.795716         0.675398
