19
Iteration:  3839charge 0 multiplicity 1
 O         0.300961        -0.424068         0.435210
 C        -0.693717         0.637978         0.708427
 C        -0.370747         1.791035         1.613221
 C        -1.887461         2.065362         1.231925
 C        -2.238090         3.406740         0.560790
 C        -1.254249         2.983961        -0.628708
 C        -1.537741         1.477105        -0.145665
 O        -2.668786         1.143506         1.984884
 C        -1.929749        -0.072850         1.591221
 H         0.303683        -0.737169        -0.465968
 H        -0.086416         1.571703         2.652777
 H         0.197027         2.583797         1.179563
 H        -3.371990         3.235986         0.254514
 H        -2.065474         4.267084         1.168957
 H        -1.619832         3.347170        -1.667064
 H        -0.231078         3.302109        -0.555143
 H        -2.400899         1.129342        -0.661988
 H        -1.341748        -0.542373         2.470913
 H        -2.570250        -0.872115         1.098132
