19
Iteration:  3171
 O         0.259500        -0.383111         0.271166
 C        -0.725360         0.610254         0.754964
 C        -0.412493         1.840262         1.719690
 C        -1.906616         2.070314         1.212406
 C        -2.245906         3.429330         0.558923
 C        -1.218842         2.932667        -0.558865
 C        -1.455545         1.451935        -0.187833
 O        -2.688988         1.137953         1.947944
 C        -1.865571        -0.041544         1.575402
 H         0.269320        -1.083073         0.996168
 H        -0.285596         1.565744         2.785695
 H         0.386716         2.379509         1.142784
 H        -3.323695         3.428148         0.082465
 H        -2.280035         4.280329         1.267753
 H        -1.528682         3.177657        -1.497870
 H        -0.205673         3.428744        -0.565253
 H        -2.278371         0.901106        -0.770169
 H        -1.425189        -0.584286         2.363062
 H        -2.507182        -0.816648         1.150707
