19
Iteration:  1228charge 0 multiplicity 1
 O         0.246416        -0.368544         0.199310
 C        -0.651505         0.563304         0.751669
 C        -0.442982         1.724123         1.720700
 C        -1.861130         2.082328         1.224418
 C        -2.275114         3.427479         0.630665
 C        -1.266599         2.921384        -0.610513
 C        -1.422115         1.424466        -0.204551
 O        -2.671099         1.162334         1.923761
 C        -1.916194         0.031240         1.633758
 H         0.513670        -0.820804         0.949545
 H        -0.412680         1.634519         2.858569
 H         0.287506         2.435372         1.529761
 H        -3.418382         3.488612         0.335326
 H        -2.048144         4.465401         1.119575
 H        -1.657410         3.172003        -1.659562
 H        -0.260290         3.182946        -0.359206
 H        -2.171200         0.954633        -0.803761
 H        -1.445295        -0.375680         2.541777
 H        -2.579229        -0.661249         1.116260
