19
Iteration:  4907
 O         0.230549        -0.418171         0.274201
 C        -0.714095         0.573394         0.822757
 C        -0.400411         1.847439         1.623537
 C        -1.839011         2.074731         1.257631
 C        -2.210603         3.432178         0.486030
 C        -1.333643         2.888323        -0.689593
 C        -1.576740         1.436527        -0.164765
 O        -2.584169         1.159360         2.102815
 C        -1.892673        -0.007871         1.583500
 H         0.818447        -0.674149         1.134873
 H        -0.441160         1.772280         2.718825
 H         0.299005         2.612063         1.179086
 H        -3.234339         3.368362         0.064384
 H        -1.855414         4.451480         0.842003
 H        -1.749197         3.173115        -1.654310
 H        -0.273577         3.176656        -0.413728
 H        -2.231771         0.771032        -0.823037
 H        -1.509108        -0.599230         2.402816
 H        -2.574937        -0.579772         0.851937
