19
Iteration:   816
 O         0.192962        -0.374121         0.207057
 C        -0.619777         0.581156         0.793469
 C        -0.449983         1.735714         1.768864
 C        -1.869470         2.096729         1.206294
 C        -2.181044         3.443378         0.544267
 C        -1.362634         2.986605        -0.649220
 C        -1.430155         1.487520        -0.097921
 O        -2.650581         1.083042         1.932224
 C        -1.891906        -0.063196         1.640312
 H         0.774039        -0.676370         0.835461
 H        -0.453696         1.423795         2.775457
 H         0.513987         2.416059         1.582697
 H        -3.183419         3.418307         0.203742
 H        -2.013165         4.476924         0.972191
 H        -1.936785         3.121279        -1.685509
 H        -0.495498         3.605119        -0.890684
 H        -2.352051         1.173957        -0.595443
 H        -1.498468        -0.596978         2.573876
 H        -2.389048        -0.654337         0.885203
