19
Iteration:   693
 O         0.254334        -0.332420         0.243506
 C        -0.700205         0.545280         0.785958
 C        -0.360116         1.785603         1.681061
 C        -1.872417         2.114168         1.196722
 C        -2.263470         3.428346         0.576879
 C        -1.287114         2.943101        -0.578211
 C        -1.485720         1.447587        -0.133389
 O        -2.684760         1.182865         1.920792
 C        -1.895303        -0.152403         1.605898
 H         0.834725        -0.762202         0.880920
 H        -0.261821         1.539414         2.852417
 H         0.489671         2.207802         1.213262
 H        -3.293426         3.618661         0.175937
 H        -1.983199         4.243481         1.245872
 H        -1.551112         3.148087        -1.623382
 H        -0.245358         3.566229        -0.523689
 H        -2.412025         1.037555        -0.715469
 H        -1.677300        -0.563545         2.632294
 H        -2.658370        -0.712590         0.969502
