19
Iteration:   935
 O         0.237236        -0.370352         0.201997
 C        -0.669673         0.575344         0.773084
 C        -0.409961         1.776239         1.695344
 C        -1.928502         2.040480         1.227016
 C        -2.188363         3.413170         0.585922
 C        -1.282394         2.988118        -0.592267
 C        -1.500726         1.466153        -0.161059
 O        -2.665465         1.091108         1.956863
 C        -1.908993        -0.009471         1.622493
 H         0.820137        -0.677362         0.956849
 H        -0.175156         1.599626         2.719106
 H         0.284314         2.551418         1.189185
 H        -3.193848         3.473813         0.274878
 H        -1.781388         4.346571         1.052567
 H        -1.648368         3.265862        -1.638742
 H        -0.280676         3.512210        -0.448323
 H        -2.327289         0.805893        -0.769075
 H        -1.599401        -0.436689         2.547963
 H        -2.602273        -0.708483         1.123515
