19
Iteration:  2853
 O         0.333709        -0.371859         0.578747
 C        -0.677082         0.512038         0.706419
 C        -0.389566         1.653756         1.594615
 C        -1.870914         2.053440         1.209392
 C        -2.167022         3.479711         0.695682
 C        -1.315813         3.026815        -0.575008
 C        -1.576528         1.511106        -0.199090
 O        -2.695180         1.130963         1.872542
 C        -1.922581         0.008123         1.452836
 H         0.563103        -0.716811        -0.387122
 H        -0.425062         1.487023         2.738086
 H         0.369016         2.315342         1.329786
 H        -3.269486         3.537360         0.313663
 H        -1.974790         4.261185         1.355243
 H        -1.732772         3.361477        -1.600797
 H        -0.291155         3.192514        -0.401441
 H        -2.439727         0.941861        -0.787891
 H        -1.535350        -0.531187         2.265637
 H        -2.459249        -0.664484         0.706870
