19
Iteration:  3037
 O         0.248562        -0.465692         0.357553
 C        -0.682461         0.507463         0.706266
 C        -0.439339         1.773052         1.707651
 C        -1.902316         2.028108         1.148611
 C        -2.302950         3.438051         0.611404
 C        -1.197652         2.982321        -0.496932
 C        -1.478251         1.459243        -0.191681
 O        -2.678319         1.170895         1.927067
 C        -1.884110         0.040138         1.570580
 H         1.028569        -0.086301        -0.105111
 H        -0.416861         1.546173         2.784671
 H         0.276047         2.562244         1.436061
 H        -3.349146         3.386265         0.151396
 H        -1.955705         4.378196         1.239608
 H        -1.644734         3.209554        -1.537176
 H        -0.229482         3.349844        -0.392477
 H        -2.266872         1.006859        -0.828691
 H        -1.463023        -0.437611         2.497504
 H        -2.476736        -0.677417         0.893552
