19
Iteration:  1568charge 0 multiplicity 1
 O         0.378530        -0.348884         0.404207
 C        -0.703310         0.493544         0.737761
 C        -0.420325         1.677077         1.659818
 C        -1.890493         2.104810         1.154401
 C        -2.203796         3.467274         0.645846
 C        -1.303877         3.042287        -0.557107
 C        -1.555161         1.511566        -0.218771
 O        -2.689212         1.150248         1.932257
 C        -1.918683        -0.084159         1.594006
 H         0.112441        -0.886698        -0.307884
 H        -0.287273         1.506458         2.705294
 H         0.325933         2.188140         0.973015
 H        -3.230397         3.586133         0.400713
 H        -1.733889         4.237506         1.214341
 H        -1.518719         3.359286        -1.585813
 H        -0.270035         3.299419        -0.421907
 H        -2.318582         1.028141        -0.780375
 H        -1.460239        -0.674295         2.500383
 H        -2.713604        -0.742281         1.094622
