19
Iteration:  3686
 O         0.178683        -0.461240         0.366560
 C        -0.662278         0.616341         0.791468
 C        -0.349336         1.890196         1.699577
 C        -1.873226         2.107640         1.191003
 C        -2.203498         3.422474         0.557442
 C        -1.294101         2.918587        -0.686519
 C        -1.531534         1.498794        -0.128595
 O        -2.689184         1.051431         1.990849
 C        -1.866794        -0.067429         1.581112
 H         0.904262        -0.121894        -0.090027
 H        -0.285219         1.568100         2.747775
 H         0.477557         2.494944         1.336187
 H        -3.263858         3.714730         0.228362
 H        -1.888848         4.294205         1.092670
 H        -1.923804         3.118680        -1.593476
 H        -0.324006         3.356918        -0.683256
 H        -2.295838         1.062711        -0.786532
 H        -1.493114        -0.664926         2.426311
 H        -2.390217        -0.645455         0.906620
