19
Iteration:   918charge 0 multiplicity 1
 O         0.193400        -0.375408         0.215204
 C        -0.659507         0.601406         0.789041
 C        -0.399786         1.874354         1.694070
 C        -1.839164         2.096645         1.233152
 C        -2.193906         3.440936         0.665899
 C        -1.326881         2.851202        -0.592893
 C        -1.505300         1.422679        -0.108819
 O        -2.730671         1.198431         1.878204
 C        -1.807792        -0.086845         1.521549
 H         0.756946        -0.827227         0.958360
 H        -0.380713         1.667052         2.814744
 H         0.322829         2.537063         1.402181
 H        -3.324580         3.544022         0.496660
 H        -1.914037         4.216993         1.359188
 H        -1.818585         2.944969        -1.556816
 H        -0.267771         3.031147        -0.617490
 H        -2.272275         1.084041        -0.624907
 H        -1.477554        -0.722905         2.412567
 H        -2.259535        -0.773886         0.789110
