19
Iteration:  2562charge 0 multiplicity 1
 O         0.245331        -0.458157         0.482650
 C        -0.684135         0.544609         0.695618
 C        -0.460133         1.761593         1.648971
 C        -1.866054         2.058829         1.155023
 C        -2.163423         3.553853         0.615049
 C        -1.315681         3.082699        -0.600519
 C        -1.540030         1.541687        -0.252471
 O        -2.697818         1.003465         1.977390
 C        -1.901785        -0.124114         1.539714
 H         1.027843        -0.060976         0.649340
 H        -0.286741         1.496536         2.734885
 H         0.314065         2.431352         1.265008
 H        -3.186491         3.802227         0.430660
 H        -1.813317         4.351084         1.348084
 H        -1.314381         3.469345        -1.699381
 H        -0.251008         3.495611        -0.503476
 H        -2.202949         1.016589        -1.032332
 H        -1.424998        -0.765717         2.279389
 H        -2.472938        -0.733512         0.915487
