19
Iteration:   695charge 0 multiplicity 1
 O         0.246382        -0.326518         0.235527
 C        -0.700774         0.533978         0.795691
 C        -0.357681         1.801220         1.678273
 C        -1.855687         2.111946         1.200024
 C        -2.249711         3.431905         0.576102
 C        -1.290743         2.943511        -0.570364
 C        -1.485948         1.446436        -0.128196
 O        -2.689771         1.172790         1.905499
 C        -1.906331        -0.159700         1.608717
 H         0.871678        -0.783615         0.936437
 H        -0.265456         1.527102         2.778946
 H         0.537949         2.251698         1.203400
 H        -3.257314         3.576402         0.188084
 H        -2.021940         4.299275         1.253377
 H        -1.559163         3.145084        -1.648337
 H        -0.382726         3.574573        -0.550536
 H        -2.322752         1.020784        -0.622619
 H        -1.705026        -0.537544         2.673211
 H        -2.655857        -0.656207         0.963289
