19
Iteration:  3935charge 0 multiplicity 1
 O         0.328022        -0.327270         0.336057
 C        -0.667482         0.577895         0.736211
 C        -0.495210         1.772381         1.734687
 C        -1.886684         2.097690         1.130494
 C        -2.141372         3.526270         0.607564
 C        -1.279588         2.957135        -0.683339
 C        -1.606495         1.462267        -0.199443
 O        -2.670163         1.050190         2.011616
 C        -1.843906        -0.062574         1.579548
 H        -0.014538        -1.155132         0.554601
 H        -0.543178         1.684431         2.877790
 H         0.298910         2.390539         1.284637
 H        -3.175063         3.638850         0.379227
 H        -1.733380         4.390659         1.238015
 H        -1.652147         3.105426        -1.818496
 H        -0.217324         3.118962        -0.509363
 H        -2.473742         0.904173        -0.582883
 H        -1.474852        -0.589186         2.504651
 H        -2.502306        -0.755758         0.999823
