19
Iteration:  3660
 O         0.331004        -0.386156         0.384832
 C        -0.693193         0.543381         0.797763
 C        -0.485774         1.781203         1.621118
 C        -1.859113         2.121470         1.172151
 C        -2.158955         3.463343         0.625426
 C        -1.332018         2.902741        -0.645771
 C        -1.528519         1.430875        -0.201685
 O        -2.700838         1.156339         1.956235
 C        -1.869447        -0.098611         1.646670
 H         0.365359        -0.289428        -0.513731
 H        -0.475457         1.639615         2.708578
 H         0.327210         2.453267         1.200562
 H        -3.119096         3.767154         0.359057
 H        -1.760586         4.436077         1.164067
 H        -1.878983         3.263244        -1.477312
 H        -0.277510         3.293943        -0.518046
 H        -2.237733         0.985127        -0.847082
 H        -1.331495        -0.570952         2.491021
 H        -2.584896        -0.771044         1.155605
