19
Iteration:  4795charge 0 multiplicity 1
 O         0.260246        -0.419544         0.323522
 C        -0.695408         0.561478         0.774748
 C        -0.343940         1.860288         1.610212
 C        -1.850636         2.124596         1.195984
 C        -2.295941         3.438397         0.558761
 C        -1.339696         2.922442        -0.626167
 C        -1.555003         1.382765        -0.166857
 O        -2.555355         1.165753         2.051417
 C        -1.948310         0.005696         1.587955
 H         0.542229        -0.798563         1.085545
 H         0.037123         1.614822         2.627541
 H         0.307538         2.478358         1.009336
 H        -3.258442         3.214278         0.005263
 H        -2.221861         4.526789         0.997357
 H        -1.686504         3.107166        -1.574741
 H        -0.261156         3.055793        -0.587325
 H        -2.345975         0.959470        -0.732295
 H        -1.554272        -0.702925         2.364869
 H        -2.503578        -0.670054         0.955113
