19
Iteration:  4234
 O         0.351666        -0.309773         0.426276
 C        -0.675526         0.480952         0.774650
 C        -0.328288         1.772604         1.600762
 C        -1.849064         2.101859         1.216407
 C        -2.228931         3.394288         0.563264
 C        -1.340140         2.926576        -0.672946
 C        -1.533491         1.503344        -0.177657
 O        -2.680150         1.149628         1.957153
 C        -1.958294        -0.033405         1.657024
 H        -0.129005        -1.083065        -0.147480
 H         0.018077         1.591347         2.707377
 H         0.305208         2.489107         1.027262
 H        -3.443527         3.421167         0.234484
 H        -1.944391         4.292280         1.154814
 H        -1.796489         3.143824        -1.628626
 H        -0.292565         3.457268        -0.607971
 H        -2.438737         1.099510        -0.650189
 H        -1.533950        -0.636925         2.518866
 H        -2.532490        -0.695062         1.087211
