19
Iteration:  2318
 O         0.205235        -0.437671         0.401142
 C        -0.667365         0.557899         0.821152
 C        -0.355354         1.823661         1.742607
 C        -1.895844         2.068269         1.229389
 C        -2.155289         3.518125         0.661590
 C        -1.328172         3.002304        -0.575265
 C        -1.479490         1.469075        -0.119338
 O        -2.689583         1.041908         1.817109
 C        -1.941027        -0.086065         1.448709
 H         0.833756         0.033374        -0.302423
 H        -0.407308         1.727619         2.841204
 H         0.388964         2.398650         1.339205
 H        -3.122449         3.754879         0.216919
 H        -1.633645         4.274256         1.069438
 H        -1.929821         3.245370        -1.508916
 H        -0.336025         3.348869        -0.617133
 H        -2.209756         0.980192        -0.702534
 H        -1.568963        -0.732601         2.370824
 H        -2.415180        -0.678348         0.663752
