19
Iteration:  2555charge 0 multiplicity 1
 O         0.240379        -0.411129         0.465547
 C        -0.689098         0.580851         0.720530
 C        -0.461540         1.714774         1.648829
 C        -1.927023         2.063358         1.186031
 C        -2.159215         3.515733         0.632836
 C        -1.255178         3.048435        -0.601420
 C        -1.547051         1.511900        -0.273961
 O        -2.662454         1.070814         1.965029
 C        -1.896977        -0.157669         1.526130
 H         1.137369        -0.086534         0.513025
 H        -0.445783         1.518179         2.762877
 H         0.226388         2.451991         1.332606
 H        -3.246066         3.644728         0.523205
 H        -1.741421         4.460886         1.120766
 H        -1.536409         3.383665        -1.576930
 H        -0.173455         3.417990        -0.366602
 H        -2.298965         1.088836        -1.021946
 H        -1.425869        -0.668897         2.345920
 H        -2.531750        -0.834440         0.774496
