19
Iteration:  4050
 O         0.300622        -0.414695         0.335399
 C        -0.681314         0.517057         0.752710
 C        -0.427454         1.845940         1.681650
 C        -1.905963         2.103235         1.245499
 C        -2.154555         3.516750         0.623225
 C        -1.351010         2.947264        -0.702823
 C        -1.541790         1.371555        -0.122479
 O        -2.693426         1.133262         1.942741
 C        -1.893524        -0.065966         1.604349
 H         1.050758         0.104442         0.069426
 H        -0.349937         1.662339         2.750500
 H         0.321649         2.381521         1.163350
 H        -3.204324         3.746195         0.407188
 H        -1.669181         4.301027         1.133294
 H        -1.762365         2.912757        -1.649400
 H        -0.269167         3.258226        -0.846274
 H        -2.334204         0.869524        -0.693398
 H        -1.581399        -0.440153         2.642350
 H        -2.469720        -0.859081         0.952602
