19
Iteration:   623
 O         0.342469        -0.361772         0.233631
 C        -0.686570         0.546877         0.772640
 C        -0.377069         1.782164         1.730931
 C        -1.820136         2.050800         1.256342
 C        -2.171105         3.448824         0.611585
 C        -1.367655         2.936106        -0.614730
 C        -1.473063         1.453771        -0.182233
 O        -2.769404         1.197532         1.876237
 C        -1.934373        -0.072744         1.625101
 H         0.773220        -0.812868         1.068582
 H        -0.303876         1.565981         2.727252
 H         0.387462         2.611243         1.419811
 H        -3.240185         3.545902         0.452005
 H        -1.735419         4.370645         1.056311
 H        -2.034276         3.121870        -1.510623
 H        -0.417683         3.326501        -0.989406
 H        -2.365803         0.840710        -0.638934
 H        -1.734702        -0.584745         2.583825
 H        -2.552006        -0.835778         1.031639
