19
Iteration:  3250charge 0 multiplicity 1
 O         0.320899        -0.392415         0.350781
 C        -0.734124         0.527295         0.823774
 C        -0.420592         1.786291         1.596925
 C        -1.939735         2.046443         1.157973
 C        -2.154904         3.503581         0.634457
 C        -1.261655         2.923499        -0.638255
 C        -1.531059         1.524721        -0.208788
 O        -2.671441         1.098231         1.970602
 C        -1.939787        -0.088797         1.584833
 H         0.978402        -0.353398         0.978949
 H        -0.613911         1.729225         2.709825
 H         0.321746         2.496592         1.299020
 H        -3.214621         3.664766         0.352375
 H        -1.614996         4.260565         1.176609
 H        -1.839469         3.323901        -1.356449
 H        -0.277862         3.407029        -0.793664
 H        -2.264527         0.990986        -0.893319
 H        -1.511949        -0.519312         2.407807
 H        -2.588807        -0.708602         0.925609
