19
Iteration:   632
 O         0.287584        -0.324765         0.253762
 C        -0.604998         0.537699         0.824817
 C        -0.429337         1.764452         1.659039
 C        -1.865376         2.148002         1.234441
 C        -2.146876         3.449444         0.622747
 C        -1.355475         2.957205        -0.621311
 C        -1.490117         1.383219        -0.145940
 O        -2.724229         1.124270         1.874176
 C        -1.966963        -0.066734         1.632004
 H         0.813152        -0.819146         1.002871
 H        -0.285298         1.608825         2.683101
 H         0.420926         2.360807         1.177465
 H        -3.181968         3.621932         0.393473
 H        -1.794364         4.361526         1.198389
 H        -1.939749         3.095048        -1.602585
 H        -0.370592         3.329654        -0.755826
 H        -2.363665         0.928488        -0.651964
 H        -1.558404        -0.496245         2.584467
 H        -2.461566        -0.593488         0.810835
