19
Iteration:  2817charge 0 multiplicity 1
 O         0.314459        -0.307716         0.317950
 C        -0.676301         0.487963         0.812732
 C        -0.521226         1.780475         1.746818
 C        -1.971688         2.079485         1.146453
 C        -2.075877         3.524470         0.658392
 C        -1.241893         2.925126        -0.565523
 C        -1.436112         1.437087        -0.115437
 O        -2.751403         1.063000         1.908262
 C        -1.910184        -0.052737         1.550867
 H         0.086302        -0.579754        -0.696442
 H        -0.374941         1.719538         2.783247
 H         0.209871         2.510829         1.280126
 H        -3.049591         3.695731         0.321038
 H        -1.813369         4.468645         1.095061
 H        -1.651410         3.090880        -1.562131
 H        -0.256601         3.405644        -0.672695
 H        -2.095898         1.031760        -0.947065
 H        -1.522984        -0.654405         2.475017
 H        -2.556311        -0.691835         0.864478
