19
Iteration:    73
 O         0.278640        -0.390289         0.371645
 C        -0.735776         0.539526         0.779489
 C        -0.480698         1.837550         1.520091
 C        -1.920648         2.068932         1.230960
 C        -2.157321         3.517814         0.566282
 C        -1.226950         2.982281        -0.626404
 C        -1.560089         1.507253        -0.205601
 O        -2.634252         1.069114         2.026301
 C        -1.903848        -0.128907         1.594515
 H         0.720540        -0.675550         1.159917
 H        -0.178035         1.649654         2.661885
 H         0.082945         2.461860         0.899351
 H        -3.220507         3.598790         0.230684
 H        -1.855812         4.449209         1.082243
 H        -1.549586         3.264401        -1.621706
 H        -0.135111         3.301317        -0.398881
 H        -2.259464         0.923538        -0.859870
 H        -1.426158        -0.680337         2.484006
 H        -2.682905        -0.781168         1.045177
