19
Iteration:  1609charge 0 multiplicity 1
 O         0.212955        -0.353248         0.226362
 C        -0.689569         0.602247         0.800817
 C        -0.396325         1.798191         1.756570
 C        -1.907645         2.069466         1.269757
 C        -2.157831         3.464500         0.625858
 C        -1.305943         2.913576        -0.588808
 C        -1.477828         1.500194        -0.127179
 O        -2.706868         1.103245         1.875051
 C        -1.835468        -0.051796         1.478771
 H         0.178459        -1.155291         0.854113
 H        -0.198836         1.624909         2.886891
 H         0.340357         2.490407         1.419030
 H        -3.320518         3.475998         0.317833
 H        -1.755835         4.313179         1.179802
 H        -1.520414         3.170954        -1.696429
 H        -0.273019         3.244427        -0.343954
 H        -2.389727         1.032263        -0.706268
 H        -1.651080        -0.682459         2.401740
 H        -2.276810        -0.797909         0.829498
