19
Iteration:  2637charge 0 multiplicity 1
 O         0.331106        -0.371967         0.339283
 C        -0.739562         0.520414         0.795707
 C        -0.527642         1.768499         1.713086
 C        -1.945760         2.112615         1.251190
 C        -2.168600         3.514465         0.567195
 C        -1.148707         2.969373        -0.620965
 C        -1.493617         1.506061        -0.126289
 O        -2.684906         1.058847         1.943538
 C        -1.918019        -0.089716         1.539657
 H         0.428579        -0.222930        -0.712395
 H        -0.553506         1.639058         2.846783
 H         0.339295         2.378447         1.416273
 H        -3.218129         3.404362         0.090679
 H        -1.977745         4.474550         1.126706
 H        -1.590707         3.376229        -1.656417
 H        -0.092846         3.132924        -0.479271
 H        -2.438397         1.158623        -0.510210
 H        -1.502795        -0.858023         2.430250
 H        -2.444032        -0.828431         0.856651
