19
Iteration:  3261charge 0 multiplicity 1
 O         0.315169        -0.430165         0.365714
 C        -0.660312         0.516863         0.720475
 C        -0.517625         1.773216         1.625012
 C        -1.913581         2.083529         1.159663
 C        -2.112454         3.483445         0.640313
 C        -1.322372         3.015887        -0.599603
 C        -1.540902         1.431138        -0.192702
 O        -2.683812         1.145201         1.945938
 C        -1.900986        -0.048961         1.591465
 H         1.080461        -0.302948         1.032402
 H        -0.268818         1.599253         2.713769
 H         0.232187         2.457739         1.236342
 H        -3.177383         3.697985         0.388334
 H        -1.889435         4.339610         1.262981
 H        -1.721061         2.964416        -1.545570
 H        -0.294298         3.409481        -0.593285
 H        -2.254899         0.959750        -0.929218
 H        -1.645742        -0.607231         2.435838
 H        -2.561996        -0.754949         1.034640
