19
Iteration:  4848charge 0 multiplicity 1
 O         0.318076        -0.346714         0.238576
 C        -0.717189         0.547428         0.774285
 C        -0.316110         1.785252         1.600870
 C        -1.899321         2.098250         1.198100
 C        -2.151546         3.399426         0.642784
 C        -1.354371         2.836785        -0.713313
 C        -1.574237         1.427423        -0.112398
 O        -2.751726         1.200324         1.898661
 C        -1.877386        -0.017396         1.759232
 H         0.719518        -0.681387         0.984975
 H        -0.239403         1.701137         2.684356
 H         0.368494         2.540951         1.303162
 H        -3.154087         3.731625         0.303778
 H        -1.750588         4.310656         1.192061
 H        -1.891117         2.993095        -1.611759
 H        -0.409878         3.217329        -0.902692
 H        -2.347094         1.044021        -0.653661
 H        -1.323087        -0.305200         2.705122
 H        -2.372210        -0.868317         1.357397
