19
Iteration:  2621
 O         0.285598        -0.392088         0.381037
 C        -0.664303         0.537543         0.774345
 C        -0.439411         1.691842         1.788113
 C        -1.851163         2.074870         1.227680
 C        -2.193698         3.473799         0.559114
 C        -1.275255         3.015682        -0.615940
 C        -1.501347         1.520412        -0.156124
 O        -2.726169         1.136841         1.899751
 C        -1.915331        -0.110084         1.524917
 H         0.738988        -0.034472        -0.486755
 H        -0.341871         1.397533         2.815683
 H         0.367499         2.393002         1.490369
 H        -3.261180         3.535084         0.216893
 H        -1.888848         4.353948         1.121570
 H        -1.750541         3.048086        -1.534839
 H        -0.295426         3.547143        -0.485418
 H        -2.164636         0.965060        -0.843178
 H        -1.651181        -0.556762         2.417504
 H        -2.634034        -0.748896         0.937763
