19
Iteration:  2973charge 0 multiplicity 1
 O         0.399423        -0.322295         0.441632
 C        -0.672527         0.524187         0.748767
 C        -0.469744         1.737033         1.719985
 C        -1.880720         2.040732         1.161069
 C        -2.096741         3.455456         0.700327
 C        -1.315845         2.973825        -0.607188
 C        -1.580191         1.452610        -0.271681
 O        -2.713127         1.150393         1.909126
 C        -1.907586        -0.083424         1.523685
 H         0.120319        -0.877384        -0.215853
 H        -0.438725         1.661169         2.830777
 H         0.120993         2.673525         1.571197
 H        -3.185419         3.684910         0.473200
 H        -1.734083         4.247258         1.300687
 H        -1.748637         3.263217        -1.601865
 H        -0.239684         3.177854        -0.524504
 H        -2.481305         1.069164        -0.912071
 H        -1.783684        -0.582806         2.453624
 H        -2.537607        -0.505105         0.678763
