19
Iteration:   296
 O         0.210482        -0.371974         0.277619
 C        -0.653826         0.641754         0.726902
 C        -0.344646         1.744324         1.656995
 C        -1.887020         2.117803         1.235206
 C        -2.247835         3.447390         0.604439
 C        -1.244279         2.860071        -0.603187
 C        -1.553884         1.411907        -0.144568
 O        -2.687814         1.147101         1.926511
 C        -1.897528        -0.019465         1.599888
 H         0.924398        -0.487236         0.926766
 H        -0.105275         1.424281         2.605024
 H         0.351279         2.592106         1.535818
 H        -3.303290         3.468706         0.344083
 H        -1.934079         4.358437         1.172091
 H        -1.536795         3.108608        -1.663471
 H        -0.346055         3.327389        -0.617650
 H        -2.312778         0.995711        -0.668174
 H        -1.673166        -0.649699         2.563717
 H        -2.498860        -0.717356         0.983151
