19
Iteration:  2638charge 0 multiplicity 1
 O         0.329838        -0.368763         0.338074
 C        -0.734808         0.523884         0.802833
 C        -0.528871         1.779058         1.707397
 C        -1.939848         2.104630         1.253927
 C        -2.173917         3.514786         0.563352
 C        -1.137567         2.964226        -0.619035
 C        -1.505654         1.506277        -0.132775
 O        -2.684030         1.053576         1.946062
 C        -1.921608        -0.090654         1.533459
 H         0.409066        -0.231642        -0.725974
 H        -0.552106         1.648396         2.867817
 H         0.312624         2.360539         1.416188
 H        -3.163738         3.412620         0.102095
 H        -1.961428         4.486056         1.140430
 H        -1.595992         3.359367        -1.642538
 H        -0.066771         3.153699        -0.429776
 H        -2.477624         1.131087        -0.520426
 H        -1.504207        -0.824486         2.412295
 H        -2.439542        -0.813936         0.892278
