19
Iteration:  3983charge 0 multiplicity 1
 O         0.363697        -0.395759         0.381460
 C        -0.705921         0.440192         0.834980
 C        -0.334986         1.762149         1.616852
 C        -1.849136         2.123449         1.174456
 C        -2.260325         3.414698         0.578930
 C        -1.324994         3.105512        -0.616927
 C        -1.556857         1.422551        -0.151200
 O        -2.661815         1.191675         1.890922
 C        -1.896776        -0.053065         1.622740
 H        -0.013028        -1.045450        -0.290153
 H        -0.340328         1.534349         2.633179
 H         0.429650         2.441139         1.243848
 H        -3.318421         3.251817         0.271774
 H        -2.182285         4.245609         1.163564
 H        -1.754505         3.550964        -1.512424
 H        -0.290561         3.366254        -0.377813
 H        -2.378081         0.922470        -0.580853
 H        -1.635584        -0.501777         2.676970
 H        -2.604895        -0.813867         1.058663
