19
Iteration:  4421
 O         0.294032        -0.356407         0.296184
 C        -0.676829         0.513071         0.747194
 C        -0.393296         1.768947         1.560537
 C        -1.841615         2.055253         1.160945
 C        -2.205953         3.435995         0.606024
 C        -1.365080         3.000520        -0.626910
 C        -1.583317         1.394455        -0.190279
 O        -2.594679         1.218031         1.933141
 C        -1.960612        -0.056467         1.782974
 H         0.902812        -0.603365         1.087569
 H        -0.399118         1.596603         2.691906
 H         0.312254         2.505697         1.198251
 H        -3.267772         3.437598         0.271669
 H        -1.954369         4.319083         0.968770
 H        -1.888856         3.007286        -1.657540
 H        -0.325395         3.272728        -0.562402
 H        -2.332658         0.847636        -0.750091
 H        -1.380857        -0.457773         2.684035
 H        -2.549619        -0.781136         1.268584
