19
Iteration:   991charge 0 multiplicity 1
 O         0.227523        -0.350111         0.248338
 C        -0.633498         0.637282         0.790213
 C        -0.318635         1.835019         1.655841
 C        -1.889950         2.047732         1.239607
 C        -2.162322         3.452336         0.661263
 C        -1.283104         2.907328        -0.644438
 C        -1.535204         1.396276        -0.177975
 O        -2.747268         1.123574         1.982571
 C        -1.898865        -0.077615         1.541354
 H         0.753513        -0.693947         1.099422
 H        -0.235507         1.613095         2.725841
 H         0.331385         2.622100         1.371661
 H        -3.192641         3.576731         0.413346
 H        -1.837352         4.375477         1.115358
 H        -1.927854         3.174569        -1.587401
 H        -0.327936         3.256192        -0.648351
 H        -2.406312         0.901998        -0.852631
 H        -1.718947        -0.670542         2.390981
 H        -2.479993        -0.643648         0.844945
