19
Iteration:  2355
 O         0.381813        -0.329614         0.385563
 C        -0.762846         0.578563         0.677958
 C        -0.438196         1.680506         1.644693
 C        -1.952834         2.084946         1.193637
 C        -2.138857         3.412038         0.589377
 C        -1.218191         2.976260        -0.446798
 C        -1.513190         1.470931        -0.214985
 O        -2.713335         1.127286         1.942903
 C        -1.976751        -0.031069         1.550491
 H         0.456236        -0.331544        -0.579957
 H        -0.269902         1.296985         2.622390
 H         0.515472         2.340124         1.534219
 H        -3.193729         3.581622         0.233946
 H        -2.054963         4.333383         1.264407
 H        -1.503498         3.324299        -1.390910
 H        -0.154957         3.249847        -0.244625
 H        -2.260888         0.966929        -0.950925
 H        -1.476324        -0.416021         2.389494
 H        -2.758813        -0.905889         1.298491
