19
Iteration:  2742charge 0 multiplicity 1
 O         0.363521        -0.422391         0.477342
 C        -0.659982         0.594309         0.758314
 C        -0.479232         1.783768         1.648489
 C        -1.865822         2.060315         1.195697
 C        -2.187694         3.426052         0.655341
 C        -1.296171         3.047953        -0.532819
 C        -1.465526         1.486877        -0.265314
 O        -2.667763         1.100913         1.945494
 C        -2.003433        -0.074306         1.454732
 H        -0.147227        -1.076853         0.044991
 H        -0.304736         1.747756         2.674793
 H         0.266018         2.489558         1.120730
 H        -3.295010         3.687355         0.633498
 H        -1.834155         4.160263         1.285469
 H        -1.613733         3.279907        -1.556765
 H        -0.261001         3.406310        -0.476759
 H        -2.270675         1.057091        -0.980339
 H        -1.698121        -0.637227         2.236531
 H        -2.488211        -0.603794         0.648905
