19
Iteration:   307charge 0 multiplicity 1
 O         0.194315        -0.401164         0.261409
 C        -0.656436         0.562456         0.814547
 C        -0.390248         1.839237         1.745774
 C        -1.837208         2.086527         1.228343
 C        -2.184939         3.423640         0.622696
 C        -1.307478         2.888672        -0.670611
 C        -1.551786         1.485126        -0.120617
 O        -2.679550         1.133354         1.899471
 C        -1.882168        -0.008059         1.545245
 H         0.937969        -0.590551         0.743345
 H        -0.449859         1.628694         2.754918
 H         0.425821         2.482314         1.325111
 H        -3.219456         3.427064         0.288544
 H        -1.974474         4.399760         1.125053
 H        -1.855680         3.052289        -1.626670
 H        -0.310311         3.055632        -0.567450
 H        -2.292775         0.949166        -0.543014
 H        -1.355424        -0.521417         2.440825
 H        -2.438469        -0.660048         0.858308
