19
Iteration:  3267
 O         0.309647        -0.427157         0.387793
 C        -0.673944         0.520645         0.673992
 C        -0.476672         1.776824         1.671539
 C        -1.922994         2.093082         1.179964
 C        -2.146407         3.466626         0.646934
 C        -1.340926         3.045198        -0.584897
 C        -1.514838         1.388088        -0.201145
 O        -2.694762         1.169985         1.931192
 C        -1.890674        -0.047816         1.578391
 H         1.042852        -0.364811         0.893607
 H        -0.234183         1.512722         2.693570
 H         0.207802         2.431494         1.115670
 H        -3.208479         3.634445         0.284855
 H        -1.756687         4.308434         1.284703
 H        -1.627904         3.114992        -1.719914
 H        -0.241698         3.290527        -0.661545
 H        -2.320804         0.931474        -0.785090
 H        -1.642823        -0.615321         2.569215
 H        -2.478777        -0.773419         1.004603
