19
Iteration:  1904charge 0 multiplicity 1
 O         0.305090        -0.350360         0.349831
 C        -0.655029         0.563673         0.774321
 C        -0.422140         1.711468         1.745017
 C        -1.804990         2.109299         1.293657
 C        -2.168034         3.478574         0.647941
 C        -1.291123         2.918996        -0.557631
 C        -1.471608         1.417715        -0.148899
 O        -2.793590         1.170858         1.774044
 C        -1.924361        -0.072980         1.557086
 H         0.440644        -0.260487        -0.556104
 H        -0.171059         1.368849         2.680382
 H         0.333524         2.478346         1.334307
 H        -3.243021         3.548443         0.408543
 H        -2.061404         4.385138         1.064376
 H        -1.659407         3.026323        -1.518050
 H        -0.282523         3.432478        -0.551650
 H        -2.436394         1.078020        -0.583026
 H        -1.688865        -0.619356         2.442527
 H        -2.581951        -0.819019         0.923943
