19
Iteration:  3035charge 0 multiplicity 1
 O         0.257470        -0.471956         0.362756
 C        -0.683257         0.499953         0.713646
 C        -0.417133         1.774522         1.716172
 C        -1.906137         2.038982         1.150437
 C        -2.295183         3.432474         0.608119
 C        -1.214558         2.995750        -0.492009
 C        -1.490027         1.441663        -0.191081
 O        -2.676514         1.174855         1.920393
 C        -1.888261         0.049060         1.547482
 H         0.929283        -0.109476        -0.122263
 H        -0.463414         1.591022         2.786125
 H         0.230257         2.519862         1.430651
 H        -3.290816         3.376876         0.165807
 H        -2.007649         4.352813         1.299520
 H        -1.615119         3.210899        -1.555042
 H        -0.253243         3.376919        -0.447964
 H        -2.230624         1.052763        -0.795481
 H        -1.480696        -0.465701         2.469820
 H        -2.396870        -0.679584         0.968879
