19
Iteration:  4813charge 0 multiplicity 1
 O         0.195522        -0.433786         0.342224
 C        -0.713787         0.527880         0.770077
 C        -0.389368         1.883807         1.634861
 C        -1.879034         2.131871         1.206336
 C        -2.250549         3.380735         0.547825
 C        -1.314173         2.910894        -0.705135
 C        -1.555686         1.491999        -0.161696
 O        -2.536673         1.180849         2.031089
 C        -1.827215        -0.092025         1.584736
 H         0.659519        -0.773504         1.024439
 H        -0.544125         1.920275         2.687245
 H         0.325021         2.571559         1.166819
 H        -3.317569         3.435043         0.319047
 H        -1.822831         4.194314         1.097045
 H        -1.787628         3.077345        -1.735095
 H        -0.416349         3.423177        -0.546143
 H        -2.413206         0.977127        -0.588447
 H        -1.532303        -0.682722         2.482533
 H        -2.545743        -0.650103         0.955772
