19
Iteration:  1292charge 0 multiplicity 1
 O         0.334196        -0.309580         0.308349
 C        -0.655140         0.587239         0.725432
 C        -0.427461         1.696347         1.701672
 C        -1.847422         2.039401         1.181216
 C        -2.094891         3.411624         0.662721
 C        -1.399828         2.939259        -0.591844
 C        -1.541865         1.402614        -0.183522
 O        -2.708460         1.235564         1.887728
 C        -1.933799        -0.048841         1.564290
 H         0.882021        -0.801967         0.898528
 H        -0.604055         1.519798         2.886820
 H         0.352626         2.390678         1.523286
 H        -3.204147         3.568307         0.399714
 H        -1.755672         4.333999         1.141492
 H        -1.951519         3.158262        -1.463585
 H        -0.328041         3.340846        -0.728782
 H        -2.344606         0.757823        -0.592649
 H        -1.612640        -0.588912         2.484051
 H        -2.653945        -0.553581         0.947493
