19
Iteration:  3457
 O         0.318116        -0.323379         0.447121
 C        -0.684312         0.529573         0.715916
 C        -0.364396         1.698844         1.738409
 C        -1.822612         2.047049         1.216326
 C        -2.260427         3.381475         0.592063
 C        -1.280619         2.998722        -0.613435
 C        -1.527617         1.525579        -0.242342
 O        -2.670055         1.163884         1.884213
 C        -1.938826        -0.054004         1.601723
 H        -0.132859        -0.975626        -0.140672
 H        -0.408092         1.406978         2.773280
 H         0.426918         2.390311         1.324660
 H        -3.310068         3.386513         0.160387
 H        -2.038770         4.247630         1.171829
 H        -1.618599         3.485231        -1.520332
 H        -0.270451         3.405112        -0.390868
 H        -2.321697         1.104750        -0.968127
 H        -1.465100        -0.462447         2.446611
 H        -2.692997        -0.693167         1.103990
