19
Iteration:  1851
 O         0.293306        -0.389707         0.447624
 C        -0.702855         0.571697         0.695625
 C        -0.484048         1.773675         1.694903
 C        -1.984756         2.057785         1.187738
 C        -2.146966         3.411803         0.660300
 C        -1.215410         2.960869        -0.513114
 C        -1.553556         1.490812        -0.236273
 O        -2.657393         1.123541         1.974136
 C        -1.889202        -0.013548         1.460079
 H         0.402067        -0.637775        -0.437339
 H        -0.402832         1.436982         2.643977
 H         0.436176         2.315986         1.237473
 H        -3.191688         3.537804         0.183560
 H        -1.893970         4.256942         1.314667
 H        -1.422678         3.293769        -1.486189
 H        -0.179415         3.321889        -0.350957
 H        -2.193343         1.142887        -1.102373
 H        -1.476029        -0.522776         2.315109
 H        -2.549605        -0.656888         0.915267
