19
Iteration:  4613charge 0 multiplicity 1
 O         0.332274        -0.387671         0.271641
 C        -0.742801         0.559279         0.762853
 C        -0.454201         1.772452         1.607699
 C        -1.947382         2.082930         1.221627
 C        -2.165175         3.411078         0.541948
 C        -1.294439         2.894876        -0.681891
 C        -1.582208         1.454410        -0.188589
 O        -2.667432         1.171035         2.006822
 C        -1.815722         0.027228         1.724159
 H         0.440768        -1.047667         0.975714
 H        -0.172753         1.711349         2.688715
 H         0.211421         2.417962         1.077281
 H        -3.233421         3.469878         0.426751
 H        -1.832254         4.369151         1.145681
 H        -1.790023         3.136746        -1.601598
 H        -0.235397         3.462992        -0.582461
 H        -2.317083         1.015150        -0.970527
 H        -1.304898        -0.342304         2.583331
 H        -2.397358        -0.884816         1.305592
