19
Iteration:  2252
 O         0.284917        -0.401116         0.424174
 C        -0.731456         0.489059         0.677190
 C        -0.371919         1.721760         1.600516
 C        -1.917514         2.101782         1.253948
 C        -2.219972         3.451072         0.644670
 C        -1.177105         3.008119        -0.532278
 C        -1.559585         1.532747        -0.189894
 O        -2.724812         1.099743         1.923589
 C        -1.928343        -0.067684         1.517652
 H         1.038620         0.149799         0.209671
 H        -0.180142         1.629412         2.676909
 H         0.258137         2.282276         1.045667
 H        -3.242211         3.451415         0.154415
 H        -2.027294         4.253093         1.296761
 H        -1.364375         3.394397        -1.553292
 H        -0.169280         3.302857        -0.428174
 H        -2.251506         1.066572        -0.834373
 H        -1.505871        -0.564380         2.534804
 H        -2.668894        -0.724266         1.036769
