19
Iteration:  2682
 O         0.399899        -0.328257         0.372668
 C        -0.697559         0.526425         0.723029
 C        -0.487595         1.729602         1.723129
 C        -1.869020         2.086809         1.173544
 C        -2.150734         3.432320         0.683981
 C        -1.222813         3.020408        -0.575905
 C        -1.517429         1.442065        -0.181112
 O        -2.764659         1.127310         1.875602
 C        -1.952993        -0.041892         1.571336
 H        -0.009495        -0.822761        -0.486119
 H        -0.372423         1.590907         2.874280
 H         0.210163         2.406699         1.335909
 H        -3.182549         3.467063         0.312009
 H        -1.889223         4.312281         1.412989
 H        -1.706309         3.168477        -1.618565
 H        -0.130903         3.318498        -0.668042
 H        -2.239393         1.131567        -0.943260
 H        -1.551752        -0.543572         2.629299
 H        -2.525955        -0.892106         1.127850
