19
Iteration:  2821charge 0 multiplicity 1
 O         0.318902        -0.322142         0.336035
 C        -0.682415         0.494285         0.796650
 C        -0.530753         1.789430         1.699639
 C        -1.958109         2.074045         1.231988
 C        -2.088915         3.529267         0.649595
 C        -1.247776         2.962728        -0.584993
 C        -1.410208         1.430161        -0.154854
 O        -2.733542         1.068058         1.920013
 C        -1.941961        -0.066771         1.548107
 H         0.155647        -0.543263        -0.516365
 H        -0.473315         1.763878         2.866719
 H         0.172970         2.451731         1.301375
 H        -3.171293         3.701822         0.202222
 H        -1.639430         4.337190         1.257046
 H        -1.667461         3.191852        -1.640593
 H        -0.267494         3.374624        -0.703268
 H        -2.106032         0.964028        -0.953990
 H        -1.582103        -0.649244         2.305030
 H        -2.480432        -0.819561         0.922877
