19
Iteration:  2715
 O         0.333042        -0.385924         0.510603
 C        -0.694230         0.576280         0.768264
 C        -0.353218         1.655954         1.703325
 C        -1.846916         2.094592         1.171980
 C        -2.187373         3.542482         0.664325
 C        -1.353285         3.075747        -0.626676
 C        -1.539977         1.512947        -0.171600
 O        -2.724539         1.062388         1.831598
 C        -1.920195        -0.054775         1.443243
 H        -0.018327        -1.219315         0.251828
 H        -0.152861         1.466552         2.831531
 H         0.379311         2.301877         1.306205
 H        -3.262752         3.579961         0.604972
 H        -1.794673         4.389941         1.419655
 H        -1.899451         3.132011        -1.605723
 H        -0.240349         3.315508        -0.624408
 H        -2.291710         1.044846        -0.822773
 H        -1.414515        -0.635775         2.434429
 H        -2.313242        -0.765140         0.657452
