19
Iteration:  4878charge 0 multiplicity 1
 O         0.275994        -0.291979         0.247219
 C        -0.755951         0.554426         0.794199
 C        -0.371917         1.808945         1.604339
 C        -1.894442         2.087794         1.188545
 C        -2.137931         3.476900         0.562466
 C        -1.307009         2.817981        -0.690635
 C        -1.606039         1.395895        -0.147037
 O        -2.659075         1.151059         2.035007
 C        -1.890995        -0.065428         1.701535
 H         0.793410        -0.562129         1.065690
 H        -0.425637         1.743844         2.726964
 H         0.414948         2.485860         1.259300
 H        -3.111480         3.739292         0.198777
 H        -1.712797         4.306936         1.033920
 H        -1.808194         3.087219        -1.733510
 H        -0.241695         3.124771        -0.694247
 H        -2.347170         0.871613        -0.848748
 H        -1.368959        -0.439783         2.576641
 H        -2.511307        -0.752747         1.098826
