19
Iteration:  2602
 O         0.232415        -0.443079         0.429745
 C        -0.678983         0.577577         0.753397
 C        -0.363103         1.752908         1.730230
 C        -1.843242         2.090804         1.193919
 C        -2.181364         3.378257         0.717563
 C        -1.371687         2.992622        -0.586632
 C        -1.418262         1.454574        -0.225802
 O        -2.732584         1.143285         1.806298
 C        -1.937036        -0.009682         1.506701
 H         1.122405         0.040997         0.111075
 H        -0.278081         1.541081         2.755770
 H         0.426659         2.523025         1.373196
 H        -3.337435         3.517226         0.520258
 H        -1.919642         4.228672         1.291074
 H        -1.758907         3.335331        -1.586003
 H        -0.340079         3.248552        -0.543447
 H        -2.233540         0.977360        -0.678408
 H        -1.627706        -0.551954         2.530185
 H        -2.546936        -0.646620         0.737812
