19
Iteration:  4452charge 0 multiplicity 1
 O         0.252342        -0.348295         0.267878
 C        -0.684392         0.570290         0.829988
 C        -0.389197         1.780635         1.608132
 C        -1.908995         2.059403         1.270925
 C        -2.140812         3.427447         0.558538
 C        -1.355038         2.878809        -0.679733
 C        -1.614066         1.410409        -0.082894
 O        -2.683525         1.201183         2.019371
 C        -1.843677         0.000377         1.584445
 H         1.067062        -0.310966         0.805212
 H        -0.205022         1.604777         2.730120
 H         0.284647         2.478136         1.117982
 H        -3.106326         3.511711         0.138832
 H        -1.777799         4.410980         0.837331
 H        -1.709507         2.789559        -1.727288
 H        -0.286572         3.180209        -0.831423
 H        -2.320572         0.858960        -0.753826
 H        -1.485699        -0.687592         2.484188
 H        -2.350465        -0.738614         0.897293
