19
Iteration:  2979charge 0 multiplicity 1
 O         0.378166        -0.355600         0.472584
 C        -0.652807         0.529205         0.747773
 C        -0.454465         1.756587         1.723787
 C        -1.902444         2.044332         1.174696
 C        -2.119096         3.451825         0.689498
 C        -1.336556         2.978791        -0.613327
 C        -1.571478         1.476025        -0.239573
 O        -2.717784         1.162295         1.903785
 C        -1.892516        -0.093463         1.487818
 H         0.118314        -0.871321        -0.375325
 H        -0.398584         1.563236         2.790795
 H         0.262329         2.540078         1.504359
 H        -3.148483         3.686039         0.488504
 H        -1.785193         4.495160         1.195777
 H        -1.789621         3.420046        -1.519072
 H        -0.238186         3.124539        -0.686233
 H        -2.297031         1.047419        -0.826007
 H        -1.747348        -0.740447         2.421524
 H        -2.401095        -0.624197         0.704227
