19
Iteration:  3737
 O         0.265592        -0.397624         0.352561
 C        -0.656772         0.494317         0.723222
 C        -0.400699         1.728841         1.612257
 C        -1.911240         2.018809         1.148392
 C        -2.227240         3.468559         0.644109
 C        -1.340520         3.043453        -0.657186
 C        -1.488326         1.404526        -0.213388
 O        -2.703854         1.223963         2.031642
 C        -1.889025        -0.081805         1.644937
 H         1.234487        -0.168639         0.671974
 H        -0.041193         1.590617         2.700345
 H         0.275367         2.418241         0.969121
 H        -3.233065         3.359850         0.300812
 H        -2.143432         4.507812         1.250911
 H        -1.626113         3.359759        -1.705870
 H        -0.214874         3.328593        -0.581566
 H        -2.144365         0.962311        -0.961549
 H        -1.560380        -0.366931         2.715209
 H        -2.590704        -0.869259         1.029060
