19
Iteration:  4471
 O         0.224722        -0.369612         0.270754
 C        -0.741276         0.574417         0.793002
 C        -0.390806         1.900089         1.710429
 C        -1.886415         2.140806         1.189967
 C        -2.183647         3.448165         0.530751
 C        -1.330523         2.801551        -0.705569
 C        -1.550799         1.432021        -0.183234
 O        -2.576317         1.116911         2.007013
 C        -1.907134        -0.066107         1.659840
 H         0.990570        -0.258454         0.734407
 H        -0.474526         1.784248         2.793678
 H         0.352545         2.563879         1.275910
 H        -3.245599         3.636065         0.348787
 H        -1.614640         4.350081         1.222010
 H        -1.838807         3.151336        -1.552966
 H        -0.219115         3.041165        -0.679447
 H        -2.436485         0.843546        -0.608519
 H        -1.477284        -0.744680         2.387803
 H        -2.541723        -0.828132         1.049921
