19
Iteration:  2313charge 0 multiplicity 1
 O         0.186731        -0.427136         0.398630
 C        -0.662834         0.564518         0.777938
 C        -0.391458         1.810507         1.730343
 C        -1.862173         2.053569         1.259234
 C        -2.158308         3.495909         0.634780
 C        -1.346119         2.982117        -0.554916
 C        -1.446193         1.472750        -0.122708
 O        -2.718437         1.046501         1.824260
 C        -1.901834        -0.063332         1.442929
 H         0.894836        -0.206043        -0.118137
 H        -0.354460         1.815640         2.846088
 H         0.462968         2.575066         1.378001
 H        -3.175602         3.844893         0.355104
 H        -1.542554         4.432906         1.129098
 H        -1.984580         3.078952        -1.409322
 H        -0.261886         3.452848        -0.565697
 H        -2.216081         0.883589        -0.738106
 H        -1.660872        -0.670464         2.241328
 H        -2.449482        -0.651613         0.669834
