19
Iteration:  1793charge 0 multiplicity 1
 O         0.293800        -0.352342         0.395064
 C        -0.613243         0.571923         0.748784
 C        -0.476276         1.731775         1.761429
 C        -1.892979         2.038844         1.227624
 C        -2.109208         3.471014         0.705631
 C        -1.323015         2.964993        -0.646789
 C        -1.498332         1.483114        -0.211351
 O        -2.701794         1.143569         1.851423
 C        -1.893594        -0.038936         1.510847
 H        -0.078221        -0.890579        -0.377322
 H        -0.400428         1.257019         2.840469
 H         0.305793         2.497892         1.916966
 H        -3.195583         3.680770         0.387519
 H        -1.771787         4.324294         1.319010
 H        -1.891750         3.231480        -1.558352
 H        -0.252718         3.299197        -0.557289
 H        -2.266973         0.949165        -0.873706
 H        -1.790467        -0.633821         2.416032
 H        -2.459678        -0.775754         0.751375
