19
Iteration:  3608charge 0 multiplicity 1
 O         0.313549        -0.354431         0.325715
 C        -0.700891         0.556703         0.783241
 C        -0.408882         1.776128         1.711762
 C        -1.897965         2.099833         1.197544
 C        -2.220311         3.484961         0.570555
 C        -1.276522         2.982163        -0.647851
 C        -1.557286         1.423913        -0.145938
 O        -2.622092         1.104190         1.968915
 C        -1.902701        -0.069893         1.554310
 H         0.104001        -1.265087         0.494490
 H        -0.347074         1.771996         2.808019
 H         0.276672         2.623898         1.358331
 H        -3.270201         3.624790         0.159915
 H        -1.839798         4.360776         1.232925
 H        -1.722395         3.019593        -1.686518
 H        -0.225359         3.456996        -0.759356
 H        -2.386777         1.049049        -0.731996
 H        -1.496543        -0.669944         2.450261
 H        -2.591292        -0.744534         1.038984
