19
Iteration:  3925charge 0 multiplicity 1
 O         0.368502        -0.294952         0.354270
 C        -0.774347         0.518546         0.781039
 C        -0.461270         1.793887         1.659370
 C        -1.910375         2.102268         1.185704
 C        -2.137355         3.519114         0.581762
 C        -1.326807         2.900131        -0.659720
 C        -1.591446         1.530390        -0.215983
 O        -2.620316         1.066014         1.953239
 C        -1.902774        -0.133010         1.618399
 H         0.197594        -1.226285         0.602471
 H        -0.348965         1.606449         2.774247
 H         0.260326         2.605252         1.452057
 H        -3.149775         3.795065         0.626519
 H        -1.507346         4.243806         1.116286
 H        -1.407343         3.313040        -1.761388
 H        -0.313513         3.234728        -0.591995
 H        -2.411322         1.133992        -0.795696
 H        -1.524800        -0.642480         2.599015
 H        -2.528036        -0.906290         1.009605
