19
Iteration:  2976
 O         0.390654        -0.334810         0.460627
 C        -0.663412         0.520509         0.745444
 C        -0.465672         1.738470         1.724958
 C        -1.889155         2.041771         1.163261
 C        -2.105155         3.455346         0.701268
 C        -1.337327         2.976287        -0.615411
 C        -1.576479         1.462240        -0.260377
 O        -2.716342         1.158829         1.907917
 C        -1.895982        -0.093719         1.509443
 H         0.095514        -0.909361        -0.349426
 H        -0.406370         1.648667         2.828428
 H         0.206487         2.696091         1.567249
 H        -3.144032         3.702531         0.502935
 H        -1.804493         4.338680         1.206927
 H        -1.755593         3.328424        -1.517775
 H        -0.134031         3.139990        -0.595051
 H        -2.425440         1.074688        -0.908276
 H        -1.784690        -0.633569         2.447605
 H        -2.447868        -0.515376         0.665020
