19
Iteration:  4764charge 0 multiplicity 1
 O         0.308956        -0.346559         0.240147
 C        -0.720466         0.528458         0.760788
 C        -0.393288         1.780591         1.700984
 C        -1.840225         2.114589         1.141700
 C        -2.229193         3.395786         0.590448
 C        -1.366515         2.929338        -0.727847
 C        -1.529164         1.416937        -0.150246
 O        -2.634843         1.214284         1.998831
 C        -1.918066        -0.019365         1.715768
 H         0.567873        -1.029469         1.017144
 H        -0.178505         1.501580         2.772411
 H         0.315135         2.464659         1.209088
 H        -3.268963         3.405998         0.254001
 H        -1.969909         4.344427         1.124970
 H        -1.775669         2.983683        -1.717637
 H        -0.237123         3.264430        -0.669575
 H        -2.405872         0.861543        -0.657491
 H        -1.350351        -0.354973         2.598830
 H        -2.534492        -0.806206         1.221709
