19
Iteration:  3750charge 0 multiplicity 1
 O         0.295176        -0.444329         0.330598
 C        -0.727800         0.545345         0.783232
 C        -0.450405         1.813487         1.588775
 C        -1.891572         2.100363         1.218637
 C        -2.174433         3.377599         0.592388
 C        -1.294420         2.978121        -0.593485
 C        -1.567147         1.449779        -0.233370
 O        -2.659367         1.152461         1.948233
 C        -1.874033        -0.031134         1.646467
 H         1.097135        -0.123002         0.665117
 H        -0.250087         1.686711         2.712273
 H         0.281187         2.508248         1.144893
 H        -3.291792         3.593175         0.353874
 H        -1.784033         4.272131         1.198252
 H        -1.880315         3.233162        -1.548386
 H        -0.296311         3.416111        -0.552711
 H        -2.330959         0.925312        -0.767261
 H        -1.442139        -0.616695         2.540587
 H        -2.536399        -0.765609         1.119186
