19
Iteration:  4399charge 0 multiplicity 1
 O         0.244017        -0.397052         0.328569
 C        -0.647236         0.562666         0.733347
 C        -0.392853         1.854509         1.624405
 C        -1.893449         2.047106         1.171086
 C        -2.249281         3.452793         0.609771
 C        -1.327940         2.943058        -0.668045
 C        -1.519152         1.394812        -0.242699
 O        -2.665862         1.177699         2.040515
 C        -1.857873        -0.029218         1.651727
 H         0.499682        -0.925406         1.057355
 H        -0.067109         1.602255         2.664220
 H         0.308587         2.395226         1.001959
 H        -3.266069         3.620252         0.208786
 H        -1.935892         4.236131         1.171531
 H        -1.774263         2.956293        -1.719405
 H        -0.320561         3.364431        -0.603070
 H        -2.417356         1.002974        -0.692860
 H        -1.306254        -0.322632         2.607214
 H        -2.335908        -0.857695         1.203809
