19
Iteration:  1078
 O         0.213884        -0.346270         0.248325
 C        -0.663217         0.509976         0.845119
 C        -0.432864         1.785330         1.627718
 C        -1.951702         2.061273         1.134682
 C        -2.265229         3.475210         0.602106
 C        -1.212667         2.997725        -0.638515
 C        -1.499535         1.466660        -0.142107
 O        -2.598381         1.106541         2.038728
 C        -1.879267        -0.055557         1.596333
 H         0.582583        -1.031197         0.891277
 H        -0.467145         1.824855         2.718327
 H         0.327690         2.363724         1.240369
 H        -3.239526         3.574725         0.286246
 H        -1.922424         4.291637         1.196165
 H        -1.523739         3.336991        -1.751536
 H        -0.279628         3.336143        -0.473958
 H        -2.340913         0.976386        -0.820544
 H        -1.737656        -0.783264         2.375114
 H        -2.408248        -0.672157         0.803456
