19
Iteration:  3650charge 0 multiplicity 1
 O         0.382089        -0.340300         0.396148
 C        -0.745805         0.497785         0.708524
 C        -0.397946         1.852057         1.639209
 C        -1.907387         2.057181         1.135059
 C        -2.158852         3.438598         0.651087
 C        -1.285309         2.932059        -0.621514
 C        -1.609320         1.452917        -0.199995
 O        -2.707548         1.148594         1.949089
 C        -1.911494        -0.049286         1.672579
 H         0.371624        -0.566689        -0.523780
 H        -0.384600         1.607399         2.707253
 H         0.619438         2.299851         1.414371
 H        -3.185275         3.490812         0.390040
 H        -1.633412         4.228874         1.356064
 H        -1.702498         3.102949        -1.616022
 H        -0.209921         3.259630        -0.818971
 H        -2.426836         1.031399        -0.709745
 H        -1.653784        -0.485990         2.661600
 H        -2.410663        -0.806005         1.161784
