19
Iteration:  3574
 O         0.228777        -0.411893         0.315052
 C        -0.694979         0.528915         0.740281
 C        -0.335255         1.812202         1.692394
 C        -1.838493         2.094359         1.216454
 C        -2.310866         3.417028         0.612050
 C        -1.262304         2.963665        -0.586388
 C        -1.482803         1.432765        -0.193834
 O        -2.673096         1.144162         1.941071
 C        -1.907555        -0.017602         1.522203
 H         0.510017        -0.844614         1.244979
 H        -0.206974         1.624327         2.796619
 H         0.235360         2.697987         1.251462
 H        -3.348679         3.505649         0.266129
 H        -2.026225         4.408711         1.276717
 H        -1.778981         3.091348        -1.573288
 H        -0.271213         3.636867        -0.603626
 H        -2.192499         0.893253        -0.756981
 H        -1.258505        -0.558005         2.353350
 H        -2.582390        -0.682550         0.964770
