19
Iteration:   963charge 0 multiplicity 1
 O         0.319632        -0.318841         0.268756
 C        -0.766624         0.478250         0.729358
 C        -0.488405         1.694417         1.573595
 C        -1.882720         2.094500         1.190910
 C        -2.252409         3.457388         0.608684
 C        -1.188411         2.983192        -0.594183
 C        -1.597224         1.471631        -0.176798
 O        -2.625102         1.170992         2.004006
 C        -1.845411        -0.081541         1.596658
 H         0.769321        -0.600122         1.183100
 H        -0.431064         1.516689         2.693740
 H         0.352794         2.279728         1.204363
 H        -3.368831         3.418603         0.257314
 H        -1.925211         4.413523         1.064102
 H        -1.545498         3.190309        -1.532730
 H        -0.186615         3.466985        -0.187541
 H        -2.425872         1.234572        -0.714563
 H        -1.481668        -0.600264         2.579696
 H        -2.629926        -0.859242         1.301469
