19
Iteration:  1077charge 0 multiplicity 1
 O         0.218284        -0.345258         0.252334
 C        -0.664306         0.510172         0.843699
 C        -0.430644         1.791872         1.613797
 C        -1.939496         2.065214         1.136547
 C        -2.269336         3.479698         0.607338
 C        -1.213937         2.996425        -0.637679
 C        -1.504531         1.454861        -0.140286
 O        -2.603018         1.102331         2.038884
 C        -1.882416        -0.056784         1.603388
 H         0.537602        -0.994387         0.876969
 H        -0.483761         1.818506         2.698627
 H         0.327793         2.368835         1.219193
 H        -3.240715         3.576523         0.264302
 H        -1.908464         4.293718         1.223855
 H        -1.492536         3.341476        -1.747517
 H        -0.271067         3.332758        -0.472390
 H        -2.312797         1.022952        -0.838542
 H        -1.756311        -0.816070         2.375046
 H        -2.402780        -0.685735         0.781777
