19
Iteration:  2033charge 0 multiplicity 1
 O         0.242697        -0.437646         0.413842
 C        -0.687919         0.614987         0.735997
 C        -0.443535         1.779099         1.752236
 C        -1.906215         2.081882         1.250978
 C        -2.163820         3.470849         0.632218
 C        -1.250359         2.952750        -0.577505
 C        -1.493878         1.473226        -0.163643
 O        -2.741435         1.082524         1.887250
 C        -1.872942        -0.050045         1.469346
 H         0.658667        -0.094600        -0.489485
 H        -0.156267         1.598155         2.782629
 H         0.386531         2.493532         1.296397
 H        -3.225168         3.443134         0.211922
 H        -1.834947         4.395591         1.246971
 H        -1.726334         3.186570        -1.493789
 H        -0.121867         3.253724        -0.596695
 H        -2.308078         1.041978        -0.723299
 H        -1.460646        -0.496008         2.326520
 H        -2.430063        -0.751217         0.795655
