19
Iteration:  3928charge 0 multiplicity 1
 O         0.363645        -0.308726         0.346041
 C        -0.754561         0.532327         0.769098
 C        -0.467561         1.782360         1.698953
 C        -1.907282         2.107144         1.155312
 C        -2.129688         3.533360         0.591704
 C        -1.320573         2.906837        -0.677921
 C        -1.594233         1.531930        -0.225178
 O        -2.630222         1.051462         1.976213
 C        -1.882630        -0.112552         1.610035
 H         0.092480        -1.156410         0.600782
 H        -0.428992         1.671458         2.727214
 H         0.252301         2.576895         1.416025
 H        -3.248969         3.709881         0.622447
 H        -1.590444         4.217507         1.131342
 H        -1.363111         3.219045        -1.655375
 H        -0.277879         3.202244        -0.626422
 H        -2.429785         1.052618        -0.678275
 H        -1.548378        -0.614686         2.590270
 H        -2.526224        -0.868390         1.009485
