19
Iteration:  2556charge 0 multiplicity 1
 O         0.235334        -0.418378         0.468740
 C        -0.684636         0.576580         0.715910
 C        -0.462608         1.718412         1.652399
 C        -1.916427         2.062022         1.181634
 C        -2.155923         3.524642         0.630851
 C        -1.262552         3.054014        -0.602675
 C        -1.550741         1.514018        -0.275526
 O        -2.668230         1.060984         1.968453
 C        -1.900242        -0.154814         1.529784
 H         1.181807        -0.058445         0.544557
 H        -0.431048         1.517786         2.734479
 H         0.253693         2.468695         1.307808
 H        -3.269471         3.679195         0.525793
 H        -1.768136         4.434258         1.133150
 H        -1.469776         3.401436        -1.581726
 H        -0.224479         3.431068        -0.404885
 H        -2.253011         1.099613        -1.010099
 H        -1.391205        -0.707601         2.359784
 H        -2.527735        -0.826979         0.772165
