19
Iteration:  3154
 O         0.247114        -0.407066         0.343086
 C        -0.606570         0.535806         0.781077
 C        -0.394839         1.813101         1.617012
 C        -1.899675         2.052488         1.200113
 C        -2.262700         3.436180         0.605867
 C        -1.258714         2.992022        -0.586551
 C        -1.585910         1.513773        -0.173206
 O        -2.672992         1.109230         1.926474
 C        -1.858315        -0.036237         1.556281
 H         0.516384        -0.962040         1.203624
 H        -0.326004         1.546495         2.697585
 H         0.207774         2.646015         1.386593
 H        -3.217310         3.436937         0.211933
 H        -1.869563         4.341898         1.061836
 H        -1.494776         3.279098        -1.738235
 H        -0.205193         3.181613        -0.391701
 H        -2.300146         1.077468        -0.816663
 H        -1.695979        -0.511831         2.612014
 H        -2.417239        -0.688065         0.810435
