19
Iteration:  4916charge 0 multiplicity 1
 O         0.201011        -0.400897         0.310684
 C        -0.693971         0.531212         0.777793
 C        -0.312656         1.908443         1.635181
 C        -1.841554         2.112677         1.161301
 C        -2.261420         3.409657         0.505736
 C        -1.367830         2.897749        -0.635787
 C        -1.540664         1.435968        -0.164931
 O        -2.603643         1.169792         2.049553
 C        -1.907487        -0.025539         1.614930
 H         0.834431        -0.798377         1.075728
 H        -0.161045         1.662084         2.699842
 H         0.652098         2.347197         1.291096
 H        -3.388094         3.397088         0.325169
 H        -2.066558         4.465338         1.029321
 H        -1.534756         3.076967        -1.636140
 H        -0.285069         3.122078        -0.674827
 H        -2.240324         0.858060        -0.725937
 H        -1.742005        -0.721778         2.481436
 H        -2.538370        -0.679820         0.999925
