19
Iteration:   158charge 0 multiplicity 1
 O         0.235517        -0.382805         0.298659
 C        -0.742256         0.563484         0.749760
 C        -0.414092         1.873433         1.594326
 C        -1.867103         2.084631         1.221825
 C        -2.166532         3.419323         0.572253
 C        -1.254887         2.900826        -0.565497
 C        -1.571796         1.419218        -0.132646
 O        -2.677316         1.107884         1.969488
 C        -1.891237        -0.036677         1.576499
 H         0.903954        -0.467027         1.082396
 H        -0.169376         1.876836         2.649152
 H         0.355535         2.592370         1.232134
 H        -3.210736         3.490634         0.233959
 H        -1.880632         4.368158         1.054902
 H        -1.401552         3.236174        -1.611218
 H        -0.170573         3.219084        -0.407784
 H        -2.493586         0.946404        -0.686362
 H        -1.436214        -0.607681         2.387850
 H        -2.555468        -0.683333         0.935049
