19
Iteration:  2740
 O         0.354019        -0.424215         0.491571
 C        -0.643889         0.600162         0.745347
 C        -0.485512         1.790997         1.643708
 C        -1.855703         2.062043         1.223303
 C        -2.189397         3.409465         0.665343
 C        -1.305839         3.038403        -0.545084
 C        -1.470128         1.490026        -0.265143
 O        -2.669278         1.103351         1.933282
 C        -1.993869        -0.069323         1.429907
 H        -0.203535        -1.033053         0.116978
 H        -0.306510         1.718394         2.660816
 H         0.287679         2.509201         1.146400
 H        -3.216444         3.659431         0.514678
 H        -1.758358         4.194598         1.327468
 H        -1.736317         3.257786        -1.490364
 H        -0.211699         3.410258        -0.461618
 H        -2.310523         1.137554        -0.990494
 H        -1.659077        -0.702897         2.341735
 H        -2.518360        -0.612620         0.636699
