19
Iteration:  2651charge 0 multiplicity 1
 O         0.285373        -0.306957         0.345480
 C        -0.701747         0.576132         0.757014
 C        -0.464656         1.814777         1.736375
 C        -1.922918         2.085427         1.188000
 C        -2.148845         3.441444         0.545815
 C        -1.148729         2.923685        -0.507088
 C        -1.604629         1.472969        -0.147954
 O        -2.700559         1.056634         1.955005
 C        -1.909236        -0.127393         1.518868
 H         0.189751        -0.318005        -0.541806
 H        -0.277560         1.617905         2.858562
 H         0.197677         2.530182         1.353345
 H        -3.066219         3.657638         0.180071
 H        -1.895198         4.389814         1.147616
 H        -1.227152         3.139225        -1.605506
 H        -0.061769         3.300261        -0.356404
 H        -2.284946         1.017125        -0.970316
 H        -1.598648        -0.588290         2.472666
 H        -2.542142        -0.721433         0.930669
