19
Iteration:  4364charge 0 multiplicity 1
 O         0.250326        -0.359637         0.289352
 C        -0.707215         0.576603         0.826299
 C        -0.412367         1.825049         1.689907
 C        -1.859459         2.128606         1.183310
 C        -2.239076         3.443133         0.546340
 C        -1.343186         2.884284        -0.705159
 C        -1.562442         1.415890        -0.119967
 O        -2.602642         1.172119         1.998120
 C        -1.847515        -0.077233         1.584510
 H         0.392680        -1.076727         0.807758
 H        -0.107357         1.957354         2.794855
 H         0.364929         2.515888         1.278413
 H        -3.238874         3.542241         0.306800
 H        -1.905500         4.362541         0.940671
 H        -1.714894         2.945734        -1.715068
 H        -0.210880         3.174082        -0.826059
 H        -2.540194         0.870396        -0.332625
 H        -1.272830        -0.590049         2.452150
 H        -2.491155        -0.784666         0.990868
