19
Iteration:  1452charge 0 multiplicity 1
 O         0.310079        -0.349003         0.274906
 C        -0.744521         0.458929         0.755026
 C        -0.504198         1.796159         1.616578
 C        -1.923803         2.083135         1.149161
 C        -2.160924         3.475151         0.610459
 C        -1.243060         3.001043        -0.563293
 C        -1.536151         1.448019        -0.146232
 O        -2.647598         1.147655         1.980052
 C        -1.892830        -0.085534         1.608435
 H         0.720283        -0.796073         0.962013
 H        -0.242062         1.662068         2.621271
 H         0.198438         2.300473         0.924468
 H        -3.204369         3.516433         0.314363
 H        -1.885965         4.334580         1.433589
 H        -1.612986         3.319866        -1.485826
 H        -0.117713         3.303141        -0.590577
 H        -2.262837         0.950600        -0.813678
 H        -1.525454        -0.556755         2.514790
 H        -2.618458        -0.666495         1.036808
