19
Iteration:  2850
 O         0.327214        -0.361427         0.566095
 C        -0.673141         0.525163         0.703222
 C        -0.380926         1.671205         1.642223
 C        -1.899918         2.023634         1.180193
 C        -2.160534         3.473021         0.693784
 C        -1.315901         3.018963        -0.585147
 C        -1.586348         1.516616        -0.214962
 O        -2.698030         1.136931         1.885710
 C        -1.930930        -0.000036         1.468419
 H         0.542299        -0.682690        -0.351571
 H        -0.347440         1.439793         2.688689
 H         0.385746         2.394090         1.344733
 H        -3.144955         3.455209         0.343164
 H        -1.815386         4.256976         1.314706
 H        -1.668997         3.356988        -1.588562
 H        -0.278234         3.267281        -0.440826
 H        -2.423477         1.060282        -0.840109
 H        -1.512184        -0.717907         2.252617
 H        -2.448558        -0.710375         0.766603
