19
Iteration:  4150charge 0 multiplicity 1
 O         0.340829        -0.330326         0.299940
 C        -0.629476         0.573413         0.781506
 C        -0.357713         1.714502         1.695022
 C        -1.849312         2.157107         1.196930
 C        -2.206290         3.430984         0.559462
 C        -1.393316         2.934377        -0.676596
 C        -1.615686         1.395754        -0.095665
 O        -2.660236         1.142999         1.884935
 C        -1.916374         0.015583         1.638780
 H         0.370050        -1.023938         0.887813
 H        -0.194391         1.454540         2.769858
 H         0.378080         2.389343         1.219915
 H        -3.253422         3.544870         0.399986
 H        -1.758107         4.285243         1.048252
 H        -1.841648         3.143251        -1.635942
 H        -0.395129         3.332517        -0.526500
 H        -2.392027         0.888645        -0.714107
 H        -1.565451        -0.577969         2.542681
 H        -2.631280        -0.825277         1.211849
