19
Iteration:   807
 O         0.230584        -0.371724         0.203800
 C        -0.621889         0.541247         0.777662
 C        -0.438971         1.742861         1.802362
 C        -1.787401         2.087720         1.223512
 C        -2.240239         3.406291         0.580374
 C        -1.343677         2.965824        -0.670660
 C        -1.525709         1.486142        -0.125718
 O        -2.678568         1.205993         1.912330
 C        -1.856890        -0.096982         1.577269
 H         0.799712        -0.640168         0.858984
 H        -0.581148         1.560982         2.835269
 H         0.425059         2.466645         1.628825
 H        -3.309923         3.496753         0.463349
 H        -1.918483         4.299779         1.178739
 H        -1.827998         3.040679        -1.733650
 H        -0.428852         3.465138        -0.721136
 H        -2.261559         1.015668        -0.599975
 H        -1.477581        -0.561873         2.618140
 H        -2.489408        -0.819212         0.987646
