19
Iteration:   655charge 0 multiplicity 1
 O         0.254100        -0.333477         0.304384
 C        -0.712647         0.577035         0.743673
 C        -0.427665         1.843556         1.645282
 C        -1.947271         2.081164         1.235206
 C        -2.186241         3.437324         0.584658
 C        -1.211289         2.933850        -0.576259
 C        -1.560234         1.460597        -0.233122
 O        -2.657086         1.116786         2.006767
 C        -1.886243        -0.164877         1.578448
 H         0.575923        -0.629144         1.104680
 H        -0.293761         1.706734         2.637733
 H         0.348695         2.573258         1.182083
 H        -3.187009         3.733379         0.313957
 H        -1.717857         4.298489         1.133742
 H        -1.631119         3.208597        -1.598550
 H        -0.170942         3.116644        -0.619265
 H        -2.429484         1.024050        -0.826917
 H        -1.402825        -0.612357         2.443004
 H        -2.484097        -0.709904         0.877341
