19
Iteration:   677
 O         0.289062        -0.359054         0.260900
 C        -0.706518         0.533417         0.725231
 C        -0.456009         1.720189         1.677676
 C        -1.941026         2.039644         1.178412
 C        -2.196381         3.443026         0.578431
 C        -1.234630         2.964425        -0.587905
 C        -1.570318         1.491190        -0.203408
 O        -2.647950         1.127083         2.047463
 C        -1.878245         0.008732         1.575924
 H         0.702936        -0.701589         1.167779
 H        -0.382089         1.504695         2.675965
 H         0.221824         2.589064         1.394009
 H        -3.238534         3.419449         0.287346
 H        -2.034777         4.439564         1.065120
 H        -1.433857         3.295362        -1.641537
 H        -0.207107         3.157459        -0.431437
 H        -2.229830         0.879508        -0.851301
 H        -1.370318        -0.380192         2.435680
 H        -2.506610        -0.632037         0.989937
