19
Iteration:  3419charge 0 multiplicity 1
 O         0.308301        -0.389104         0.395452
 C        -0.683567         0.613210         0.777002
 C        -0.385470         1.795750         1.726957
 C        -1.987516         2.081013         1.162145
 C        -2.168764         3.442978         0.598332
 C        -1.272205         2.972108        -0.558321
 C        -1.553224         1.524801        -0.216654
 O        -2.670538         1.081262         1.925791
 C        -1.905324        -0.074580         1.507528
 H         0.089379        -1.251307         0.436097
 H        -0.086106         1.932761         2.788231
 H         0.322775         2.441130         1.287147
 H        -3.163325         3.569900         0.304687
 H        -1.688711         4.341214         1.082951
 H        -1.778903         3.288843        -1.524118
 H        -0.188994         3.161976        -0.630440
 H        -2.118694         0.939462        -0.846774
 H        -1.620258        -0.721117         2.470830
 H        -2.514774        -0.770178         0.891407
