19
Iteration:  2427
 O         0.348096        -0.366401         0.446131
 C        -0.676453         0.522951         0.716124
 C        -0.455658         1.720124         1.758330
 C        -1.815407         2.051625         1.200636
 C        -2.120991         3.420947         0.697564
 C        -1.356809         3.064199        -0.589047
 C        -1.521565         1.511923        -0.195767
 O        -2.693118         1.136064         1.821672
 C        -1.960379        -0.057733         1.425676
 H         0.068505        -1.261760         0.599209
 H        -0.328483         1.581321         2.864077
 H         0.372346         2.346157         1.428358
 H        -3.219477         3.614169         0.495916
 H        -1.748113         4.287858         1.191186
 H        -1.943040         3.237263        -1.647677
 H        -0.354252         3.493066        -0.559099
 H        -2.320601         1.138959        -0.759216
 H        -1.698832        -0.546924         2.447012
 H        -2.430524        -0.742907         0.851551
