19
Iteration:   625charge 0 multiplicity 1
 O         0.330823        -0.353688         0.233311
 C        -0.659686         0.541817         0.792128
 C        -0.389316         1.784189         1.702261
 C        -1.825690         2.080711         1.257999
 C        -2.165957         3.447456         0.611042
 C        -1.369162         2.945231        -0.606735
 C        -1.474216         1.433796        -0.181841
 O        -2.763537         1.180356         1.872922
 C        -1.947034        -0.082095         1.637795
 H         0.768043        -0.801997         1.072300
 H        -0.318727         1.534543         2.777640
 H         0.379495         2.532439         1.364932
 H        -3.259118         3.584213         0.453492
 H        -1.759414         4.342838         1.052646
 H        -1.970210         3.133816        -1.479004
 H        -0.372832         3.329061        -1.020818
 H        -2.384866         0.838409        -0.612999
 H        -1.671304        -0.524306         2.572989
 H        -2.529574        -0.738489         0.921933
