19
Iteration:    32
 O         0.217358        -0.321098         0.198442
 C        -0.621763         0.515315         0.827756
 C        -0.320508         1.779595         1.723613
 C        -1.877921         2.159833         1.298588
 C        -2.230324         3.436313         0.540042
 C        -1.323891         2.897212        -0.675227
 C        -1.430646         1.407342        -0.057633
 O        -2.736797         1.186839         1.853732
 C        -1.945522        -0.052118         1.624730
 H         0.610508        -1.028441         0.788205
 H        -0.168295         1.581217         2.856399
 H         0.300644         2.450346         1.235543
 H        -3.329588         3.350544         0.387370
 H        -1.980623         4.422553         0.944466
 H        -1.631842         3.016853        -1.665949
 H        -0.313766         3.218599        -0.397612
 H        -2.034208         0.843691        -0.654931
 H        -1.681686        -0.445754         2.591895
 H        -2.472137        -0.708544         1.051004
