19
Iteration:   330charge 0 multiplicity 1
 O         0.236968        -0.422671         0.254130
 C        -0.656430         0.542183         0.797708
 C        -0.435431         1.822678         1.744461
 C        -1.876674         2.100883         1.229930
 C        -2.182335         3.505976         0.562149
 C        -1.323538         2.998401        -0.723840
 C        -1.465793         1.465485        -0.152307
 O        -2.663085         1.110192         1.944939
 C        -1.931719        -0.145179         1.637800
 H         0.947819        -0.737395         0.945257
 H        -0.318398         1.575849         2.733347
 H         0.238002         2.661957         1.309275
 H        -3.222593         3.793798         0.416195
 H        -1.660179         4.368227         1.053079
 H        -2.059228         2.956491        -1.517589
 H        -0.485530         3.597337        -0.737239
 H        -2.157920         0.952849        -0.676426
 H        -1.454513        -0.686064         2.550643
 H        -2.563819        -0.703982         0.944105
