19
Iteration:   908charge 0 multiplicity 1
 O         0.242836        -0.388162         0.218722
 C        -0.658333         0.618110         0.823783
 C        -0.363867         1.860480         1.761372
 C        -1.908602         2.110582         1.211439
 C        -2.148879         3.509598         0.688915
 C        -1.356901         2.873948        -0.634979
 C        -1.557788         1.441783        -0.135560
 O        -2.693901         1.134267         1.872115
 C        -1.823894        -0.115249         1.504793
 H         0.567861        -0.846202         1.041649
 H        -0.202066         1.594963         2.869464
 H         0.418247         2.405777         1.368247
 H        -3.218503         3.406042         0.235296
 H        -1.925442         4.421777         1.238983
 H        -1.903807         3.105660        -1.516081
 H        -0.243548         3.167052        -0.912060
 H        -2.298465         0.808357        -0.474644
 H        -1.621011        -0.617548         2.554273
 H        -2.552998        -0.701868         0.857615
