19
Iteration:  1800charge 0 multiplicity 1
 O         0.314947        -0.374655         0.369122
 C        -0.632886         0.552175         0.765945
 C        -0.382161         1.697112         1.774909
 C        -1.874096         2.095363         1.228445
 C        -2.178381         3.463639         0.704680
 C        -1.314436         2.988698        -0.647625
 C        -1.442821         1.485883        -0.163717
 O        -2.790194         1.147941         1.847341
 C        -1.915310        -0.059323         1.497664
 H         0.121604        -0.828824        -0.398068
 H        -0.609112         1.315923         2.808852
 H         0.270785         2.536123         1.670591
 H        -3.164822         3.580165         0.419741
 H        -1.611176         4.206519         1.339424
 H        -1.889096         3.221085        -1.621500
 H        -0.324835         3.308954        -0.902349
 H        -2.289314         1.108206        -0.674055
 H        -1.577742        -0.486782         2.515770
 H        -2.453688        -0.746692         0.818779
