19
Iteration:  1917
 O         0.322329        -0.387017         0.375010
 C        -0.672974         0.583068         0.716609
 C        -0.324944         1.720885         1.790150
 C        -1.845362         2.081996         1.220447
 C        -2.157349         3.422704         0.673642
 C        -1.322471         2.929974        -0.616015
 C        -1.483013         1.489467        -0.186947
 O        -2.838997         1.134759         1.858581
 C        -1.969533         0.008490         1.528785
 H         0.669881        -0.138160        -0.582859
 H        -0.426608         1.438008         2.807155
 H         0.519867         2.433017         1.643659
 H        -3.235529         3.314836         0.506940
 H        -1.740033         4.235425         1.201567
 H        -1.691709         3.291950        -1.594412
 H        -0.288916         3.171780        -0.549861
 H        -2.187878         0.839225        -0.783668
 H        -1.613542        -0.361195         2.530624
 H        -2.451764        -0.760104         0.926895
