19
Iteration:  2441
 O         0.401109        -0.354885         0.459714
 C        -0.731263         0.502483         0.756814
 C        -0.413167         1.742895         1.636615
 C        -1.864824         2.098316         1.201386
 C        -2.150924         3.484409         0.737732
 C        -1.305910         3.039326        -0.533788
 C        -1.460559         1.510075        -0.265400
 O        -2.698905         1.120759         1.825024
 C        -2.015742        -0.133138         1.500994
 H         0.114264        -1.365711         0.632607
 H        -0.280980         1.598319         2.650424
 H         0.319646         2.535285         1.133229
 H        -3.267084         3.567388         0.486053
 H        -1.979354         4.293980         1.440342
 H        -1.754714         3.500103        -1.509261
 H        -0.304132         3.422824        -0.828116
 H        -2.325616         0.982855        -0.808411
 H        -1.648128        -0.816462         2.327825
 H        -2.807447        -0.634360         0.869554
