19
Iteration:  2666
 O         0.281866        -0.257715         0.352987
 C        -0.710712         0.607790         0.780102
 C        -0.413914         1.742150         1.664892
 C        -2.009586         2.003514         1.200565
 C        -2.155341         3.448382         0.627210
 C        -1.169508         2.901856        -0.526442
 C        -1.463082         1.443660        -0.219268
 O        -2.753013         1.129559         1.920770
 C        -1.897435        -0.053562         1.577318
 H         0.192877        -0.610065        -0.604435
 H        -0.349617         1.455069         2.652360
 H         0.438407         2.492397         1.434304
 H        -3.220093         3.652521         0.188641
 H        -1.778721         4.199753         1.227485
 H        -1.525231         3.278246        -1.432566
 H        -0.175809         3.111281        -0.204863
 H        -2.205892         0.873368        -0.794196
 H        -1.546366        -0.573615         2.414164
 H        -2.474856        -0.682536         0.853204
