19
Iteration:  4469
 O         0.206014        -0.356896         0.274984
 C        -0.722857         0.581144         0.783700
 C        -0.404164         1.891721         1.708592
 C        -1.883723         2.143305         1.186681
 C        -2.167989         3.457090         0.520259
 C        -1.322686         2.793461        -0.690217
 C        -1.555908         1.415431        -0.170916
 O        -2.573765         1.120571         2.004777
 C        -1.899320        -0.078596         1.643748
 H         1.085837        -0.266171         0.766474
 H        -0.427720         1.757560         2.759837
 H         0.326954         2.588227         1.265036
 H        -3.273309         3.603245         0.355098
 H        -1.669345         4.328816         1.208833
 H        -1.917915         3.142494        -1.511002
 H        -0.245402         3.066511        -0.679729
 H        -2.439075         0.858947        -0.538357
 H        -1.556035        -0.693936         2.427727
 H        -2.537173        -0.780241         1.044980
