19
Iteration:  4589
 O         0.339675        -0.277630         0.283958
 C        -0.732167         0.572745         0.821020
 C        -0.337114         1.795990         1.605720
 C        -1.832105         2.115052         1.154268
 C        -2.192332         3.455447         0.553676
 C        -1.305801         2.877254        -0.645127
 C        -1.667698         1.346400        -0.129988
 O        -2.657147         1.173820         1.971388
 C        -1.930592        -0.064640         1.681801
 H         0.348936        -1.004777         0.845565
 H        -0.080681         1.636485         2.661798
 H         0.363250         2.452260         1.075086
 H        -3.240124         3.529723         0.278643
 H        -1.811115         4.360622         0.952554
 H        -1.842915         3.181888        -1.537175
 H        -0.166077         3.204645        -0.642929
 H        -2.541028         0.820441        -0.624434
 H        -1.453644        -0.534974         2.559532
 H        -2.537425        -0.889494         1.208525
