19
Iteration:   105
 O         0.294676        -0.403546         0.327014
 C        -0.655247         0.602572         0.778568
 C        -0.373114         1.731316         1.681982
 C        -1.863087         2.055349         1.231701
 C        -2.139719         3.420532         0.713641
 C        -1.424200         2.911122        -0.684783
 C        -1.520481         1.439017        -0.206638
 O        -2.706430         1.235131         1.855057
 C        -1.936750        -0.006939         1.584590
 H         1.047901        -0.542554         1.042315
 H        -0.116149         1.533922         2.845524
 H         0.359491         2.487909         1.380249
 H        -3.226556         3.457168         0.486569
 H        -1.743576         4.353410         1.143410
 H        -1.997952         3.078849        -1.612652
 H        -0.317701         3.288312        -0.844898
 H        -2.347469         0.777166        -0.687369
 H        -1.619596        -0.507225         2.569870
 H        -2.518034        -0.796678         0.929814
