19
Iteration:  3958
 O         0.285047        -0.340654         0.319060
 C        -0.703963         0.589046         0.748518
 C        -0.360002         1.806869         1.672280
 C        -1.931933         2.080097         1.259716
 C        -2.219674         3.398345         0.559764
 C        -1.264595         2.907448        -0.556050
 C        -1.472389         1.512729        -0.188513
 O        -2.684498         1.138957         1.936667
 C        -1.863226        -0.054205         1.585109
 H        -0.198492        -1.289795         0.270452
 H        -0.205732         1.542845         2.751911
 H         0.239712         2.643575         1.217373
 H        -3.260123         3.363337         0.357253
 H        -1.921106         4.314783         1.099509
 H        -1.811588         2.968147        -1.627457
 H        -0.275902         3.375610        -0.565747
 H        -2.153871         0.955014        -0.797218
 H        -1.679213        -0.530808         2.609474
 H        -2.562277        -0.725116         0.985420
