19
Iteration:  4745charge 0 multiplicity 1
 O         0.202480        -0.330492         0.243620
 C        -0.633328         0.550729         0.807578
 C        -0.425682         1.873084         1.656382
 C        -1.877332         2.082561         1.247636
 C        -2.128126         3.503773         0.534948
 C        -1.353879         2.858125        -0.628792
 C        -1.606037         1.381502        -0.160767
 O        -2.676146         1.142140         1.911312
 C        -1.776447        -0.059378         1.725771
 H         0.677151        -0.878389         1.044955
 H        -0.495700         1.660210         2.722414
 H         0.418797         2.394505         1.187881
 H        -3.160275         3.586168         0.347393
 H        -1.717776         4.391900         0.888502
 H        -2.002443         2.958621        -1.585045
 H        -0.247312         3.157297        -0.830629
 H        -2.442190         1.016710        -0.885354
 H        -1.483315        -0.456098         2.685266
 H        -2.375631        -0.830178         1.110913
