19
Iteration:  4532
 O         0.209879        -0.422654         0.330477
 C        -0.677352         0.554269         0.826994
 C        -0.404119         1.796222         1.577757
 C        -1.833787         2.080501         1.180405
 C        -2.231430         3.405270         0.573857
 C        -1.388807         2.962596        -0.695522
 C        -1.527208         1.436982        -0.143253
 O        -2.634515         1.206497         1.966178
 C        -1.839538        -0.060828         1.657328
 H         0.840184        -0.681868         1.029488
 H        -0.146410         1.713857         2.638046
 H         0.248982         2.571625         1.094369
 H        -3.336116         3.592134         0.438964
 H        -1.818039         4.189746         0.974624
 H        -1.730200         3.306172        -1.750768
 H        -0.346751         3.252794        -0.532676
 H        -2.398139         0.970873        -0.548379
 H        -1.319089        -0.598417         2.531761
 H        -2.392980        -0.691499         1.006327
