19
Iteration:  3573charge 0 multiplicity 1
 O         0.229568        -0.410337         0.317741
 C        -0.693907         0.520409         0.734279
 C        -0.334729         1.814647         1.690612
 C        -1.839587         2.091691         1.209344
 C        -2.317138         3.416214         0.611798
 C        -1.255792         2.962276        -0.587963
 C        -1.480542         1.439445        -0.183703
 O        -2.669798         1.145281         1.935250
 C        -1.916819        -0.021305         1.526959
 H         0.522367        -0.791605         1.214770
 H        -0.169483         1.594205         2.786562
 H         0.221680         2.663699         1.238950
 H        -3.334943         3.528266         0.273765
 H        -2.050954         4.418650         1.286315
 H        -1.808786         3.104367        -1.526436
 H        -0.270543         3.614921        -0.601383
 H        -2.180690         0.890964        -0.730022
 H        -1.281297        -0.531072         2.353207
 H        -2.557755        -0.667095         0.995972
