19
Iteration:  2233
 O         0.229509        -0.417894         0.344683
 C        -0.679339         0.624737         0.770255
 C        -0.435407         1.809885         1.716447
 C        -1.911191         2.026382         1.185621
 C        -2.125315         3.419300         0.639538
 C        -1.240248         2.963996        -0.543317
 C        -1.509019         1.474550        -0.181074
 O        -2.705443         1.119231         1.928086
 C        -1.907682        -0.069379         1.521046
 H         0.901105        -0.121143        -0.175584
 H        -0.418419         1.352832         2.721991
 H         0.246689         2.607356         1.528232
 H        -3.232351         3.587810         0.243155
 H        -1.902279         4.395042         1.055959
 H        -1.541893         3.309728        -1.551026
 H        -0.276717         3.278677        -0.492866
 H        -2.369159         0.968729        -0.700262
 H        -1.684023        -0.655661         2.371941
 H        -2.427836        -0.675535         0.698943
