19
Iteration:  2207charge 0 multiplicity 1
 O         0.247408        -0.449021         0.297477
 C        -0.721335         0.550975         0.836075
 C        -0.463905         1.803641         1.860360
 C        -1.866612         2.103207         1.175461
 C        -2.153302         3.513218         0.603909
 C        -1.273687         2.999877        -0.615119
 C        -1.412037         1.513259        -0.116931
 O        -2.718127         1.050452         1.871435
 C        -1.922549        -0.099937         1.521134
 H         0.573084        -0.121481        -0.505070
 H        -0.536167         1.567034         2.917607
 H         0.376381         2.312945         1.383344
 H        -3.237803         3.698546         0.374089
 H        -1.701983         4.410484         1.064969
 H        -1.827222         2.974905        -1.538646
 H        -0.397910         3.593063        -0.994560
 H        -2.217092         1.029601        -0.616333
 H        -1.384502        -0.592099         2.521380
 H        -2.372168        -0.845261         0.878897
