19
Iteration:  4427
 O         0.301404        -0.358405         0.296336
 C        -0.638383         0.541091         0.706587
 C        -0.376127         1.794436         1.605429
 C        -1.813698         2.047175         1.163342
 C        -2.226045         3.462465         0.587082
 C        -1.375275         2.969180        -0.642711
 C        -1.575422         1.362225        -0.191188
 O        -2.627666         1.190924         1.973621
 C        -1.993603        -0.054224         1.756329
 H         0.873771        -0.471939         0.982479
 H        -0.185117         1.484088         2.628602
 H         0.332576         2.516284         1.169576
 H        -3.239549         3.507119         0.210082
 H        -1.872204         4.510695         1.093850
 H        -1.695561         2.991443        -1.639044
 H        -0.306468         3.353137        -0.661574
 H        -2.538632         0.979319        -0.660996
 H        -1.578790        -0.409267         2.712519
 H        -2.602467        -0.980548         1.382999
