19
Iteration:  4341
 O         0.332465        -0.297321         0.240652
 C        -0.679550         0.547278         0.762190
 C        -0.416262         1.758202         1.633819
 C        -1.877282         2.068757         1.228666
 C        -2.180215         3.380008         0.535067
 C        -1.382016         2.916954        -0.645248
 C        -1.533339         1.390989        -0.237888
 O        -2.659192         1.217651         2.038748
 C        -1.957937         0.004370         1.741058
 H         0.798749        -0.954581         0.929617
 H        -0.091015         1.577439         2.704846
 H         0.545520         2.222410         1.365301
 H        -3.126997         3.423642         0.211591
 H        -1.960400         4.371311         0.941519
 H        -1.797467         2.980230        -1.614729
 H        -0.336798         3.428418        -0.763903
 H        -2.345034         0.835702        -0.862294
 H        -1.652778        -0.442921         2.748061
 H        -2.504598        -0.690379         1.017808
