19
Iteration:  2461charge 0 multiplicity 1
 O         0.368420        -0.331329         0.461785
 C        -0.713131         0.518083         0.717873
 C        -0.398892         1.714700         1.622086
 C        -1.954826         2.025786         1.137057
 C        -2.173509         3.456121         0.675637
 C        -1.206052         3.060594        -0.483218
 C        -1.539340         1.504763        -0.196701
 O        -2.734866         1.093735         1.924325
 C        -1.925053        -0.053926         1.457001
 H        -0.012680        -1.305416         0.295326
 H        -0.239937         1.635046         2.672347
 H         0.261921         2.442830         1.014928
 H        -3.258102         3.729464         0.363109
 H        -1.710353         4.220392         1.205972
 H        -1.640893         3.297308        -1.644590
 H        -0.190866         3.509029        -0.351323
 H        -2.221584         1.007330        -0.863934
 H        -1.698256        -0.569225         2.484875
 H        -2.509448        -0.610052         0.855030
