19
Iteration:  4961
 O         0.272117        -0.447053         0.312709
 C        -0.686406         0.620853         0.746018
 C        -0.351570         1.805708         1.636177
 C        -1.847498         2.066787         1.181364
 C        -2.230013         3.484354         0.563187
 C        -1.344932         2.940803        -0.691267
 C        -1.556902         1.395986        -0.236583
 O        -2.668257         1.161833         1.955189
 C        -1.852183        -0.052533         1.744032
 H         0.288196        -0.972462         1.235729
 H        -0.275215         1.647826         2.720631
 H         0.363577         2.596756         1.309042
 H        -3.290418         3.761484         0.227996
 H        -1.833914         4.417720         1.156843
 H        -1.775919         3.224652        -1.636260
 H        -0.397017         3.526134        -0.771529
 H        -2.465705         0.888811        -0.586755
 H        -1.393420        -0.469072         2.666864
 H        -2.461161        -0.936209         1.428403
