19
Iteration:   160charge 0 multiplicity 1
 O         0.245826        -0.386249         0.298154
 C        -0.747464         0.576997         0.733409
 C        -0.407018         1.890176         1.581101
 C        -1.865143         2.079463         1.224035
 C        -2.160474         3.396766         0.578108
 C        -1.254410         2.909798        -0.559273
 C        -1.574584         1.415677        -0.131217
 O        -2.679923         1.110724         1.978908
 C        -1.908936        -0.034103         1.571598
 H         0.881693        -0.462468         1.104634
 H        -0.189129         1.843768         2.739768
 H         0.308102         2.538495         1.196665
 H        -3.199703         3.496015         0.192253
 H        -1.874019         4.359509         1.005169
 H        -1.405901         3.206157        -1.576738
 H        -0.133129         3.225103        -0.374826
 H        -2.475381         0.957459        -0.696928
 H        -1.384486        -0.575108         2.431621
 H        -2.588301        -0.733268         0.930487
