19
Iteration:  1056charge 0 multiplicity 1
 O         0.322458        -0.338001         0.331256
 C        -0.734402         0.558897         0.678897
 C        -0.372612         1.842798         1.592144
 C        -1.919448         2.070944         1.244627
 C        -2.173100         3.445063         0.609789
 C        -1.261510         2.932162        -0.500920
 C        -1.552339         1.461486        -0.220837
 O        -2.661000         1.126094         1.976453
 C        -1.953655        -0.077867         1.559685
 H         0.383277        -1.028873         0.993851
 H        -0.017339         1.736409         2.624720
 H         0.274016         2.468783         1.079295
 H        -3.148140         3.405116         0.289816
 H        -1.885888         4.356563         1.097470
 H        -1.774443         3.253307        -1.540691
 H        -0.302179         3.251270        -0.524032
 H        -2.415759         0.865792        -0.730198
 H        -1.487474        -0.555329         2.408613
 H        -2.618783        -0.891815         1.176416
