19
Iteration:  1946charge 0 multiplicity 1
 O         0.247280        -0.429327         0.437617
 C        -0.756037         0.482141         0.744750
 C        -0.515510         1.832347         1.645105
 C        -1.883452         2.125028         1.158272
 C        -2.145561         3.570754         0.642763
 C        -1.267625         3.005541        -0.562170
 C        -1.463570         1.488049        -0.182526
 O        -2.666319         1.044937         1.948826
 C        -1.885456        -0.152540         1.523959
 H         0.969941         0.065361        -0.102934
 H        -0.516877         1.694324         2.718593
 H         0.329086         2.445753         1.162729
 H        -3.249121         3.646118         0.436021
 H        -1.762068         4.428167         1.219564
 H        -1.646613         3.220860        -1.509478
 H        -0.192170         3.423165        -0.720289
 H        -2.183318         1.042437        -0.869021
 H        -1.648241        -0.754732         2.356947
 H        -2.409625        -1.016497         0.852709
