19
Iteration:  3204
 O         0.324031        -0.333161         0.204232
 C        -0.678381         0.553311         0.800407
 C        -0.419773         1.799455         1.779793
 C        -1.867716         2.064743         1.221386
 C        -2.219527         3.491129         0.560138
 C        -1.255276         2.943518        -0.650621
 C        -1.536162         1.432840        -0.153031
 O        -2.727252         1.159038         1.929851
 C        -1.916077        -0.091917         1.603678
 H         0.470100        -0.854563         0.929292
 H        -0.187403         1.533503         2.851273
 H         0.460207         2.317830         1.382624
 H        -3.266359         3.442909         0.008347
 H        -2.019058         4.243445         1.340453
 H        -1.558307         3.062408        -1.614649
 H        -0.150735         3.253560        -0.546079
 H        -2.427987         0.892916        -0.656204
 H        -1.544763        -0.448575         2.514270
 H        -2.625344        -0.700521         1.058221
