19
Iteration:  1369
 O         0.270029        -0.363521         0.289351
 C        -0.739335         0.553677         0.714323
 C        -0.465916         1.721755         1.598218
 C        -1.944067         2.025060         1.158733
 C        -2.183394         3.389655         0.610114
 C        -1.240276         2.997073        -0.531134
 C        -1.488693         1.453697        -0.225582
 O        -2.649068         1.198341         2.025412
 C        -1.874769         0.008511         1.592076
 H         0.739206        -0.800886         1.015821
 H        -0.324788         1.365002         2.715614
 H         0.270695         2.430157         1.416532
 H        -3.255119         3.446147         0.251844
 H        -1.995933         4.221373         1.239353
 H        -1.749522         3.239483        -1.487311
 H        -0.232364         3.360986        -0.433125
 H        -2.177062         0.974231        -0.946466
 H        -1.549451        -0.415792         2.590657
 H        -2.440357        -0.699595         0.956092
