19
Iteration:   301charge 0 multiplicity 1
 O         0.196190        -0.383306         0.272702
 C        -0.645784         0.625619         0.779111
 C        -0.366251         1.777793         1.665394
 C        -1.857309         2.113523         1.227190
 C        -2.224969         3.436758         0.627050
 C        -1.272297         2.844401        -0.643210
 C        -1.557097         1.459568        -0.126813
 O        -2.682581         1.131596         1.903638
 C        -1.900013        -0.012602         1.585453
 H         1.026128        -0.606015         0.833274
 H        -0.219424         1.473552         2.795187
 H         0.423462         2.615173         1.573137
 H        -3.297254         3.476333         0.337638
 H        -1.996695         4.368752         1.136876
 H        -1.692962         3.063129        -1.606802
 H        -0.169465         3.302441        -0.564001
 H        -2.426225         0.843500        -0.661631
 H        -1.496799        -0.552655         2.416553
 H        -2.504731        -0.629132         0.903469
