19
Iteration:  3194charge 0 multiplicity 1
 O         0.276964        -0.319186         0.218155
 C        -0.694158         0.558038         0.819427
 C        -0.407677         1.746695         1.745453
 C        -1.892089         2.066740         1.165098
 C        -2.213289         3.443421         0.524769
 C        -1.244742         2.971539        -0.638729
 C        -1.485039         1.451539        -0.119003
 O        -2.675733         1.157334         1.925576
 C        -1.923611        -0.084026         1.665420
 H         0.505709        -1.088168         0.715237
 H        -0.446619         1.578868         2.861925
 H         0.192854         2.540029         1.348358
 H        -3.363508         3.399544         0.418903
 H        -2.054230         4.413808         1.025045
 H        -1.491558         3.258740        -1.552023
 H        -0.256749         3.518659        -0.509069
 H        -2.243431         0.882808        -0.778182
 H        -1.616772        -0.653793         2.463141
 H        -2.531005        -0.836031         1.112910
