19
Iteration:  2802charge 0 multiplicity 1
 O         0.322404        -0.298187         0.268677
 C        -0.684564         0.628576         0.814552
 C        -0.429835         1.763066         1.764372
 C        -1.945458         2.065000         1.242470
 C        -2.149147         3.467419         0.571674
 C        -1.173419         2.916300        -0.542869
 C        -1.534974         1.445977        -0.145062
 O        -2.777941         1.121111         1.841819
 C        -1.896754        -0.106183         1.580566
 H        -0.054304        -0.508170        -0.560625
 H        -0.418943         1.477450         2.845840
 H         0.365797         2.463817         1.505907
 H        -3.156421         3.658156         0.158938
 H        -1.662553         4.162328         1.338641
 H        -1.600733         3.125951        -1.529168
 H        -0.076592         3.143563        -0.532914
 H        -2.299845         0.915008        -0.622305
 H        -1.700094        -0.597855         2.583429
 H        -2.354055        -0.896457         0.977159
