19
Iteration:  2833charge 0 multiplicity 1
 O         0.352747        -0.369230         0.445527
 C        -0.728530         0.611869         0.750319
 C        -0.479205         1.781929         1.691851
 C        -1.911185         2.064660         1.238134
 C        -2.118976         3.429209         0.617494
 C        -1.240111         3.022886        -0.601722
 C        -1.479682         1.488234        -0.263535
 O        -2.714616         1.091825         1.940084
 C        -1.951078        -0.162700         1.517534
 H         0.197399        -0.539898        -0.565073
 H        -0.319456         1.518240         2.817028
 H         0.268199         2.474708         1.353058
 H        -3.179307         3.926261         0.464833
 H        -1.692814         4.257820         1.322467
 H        -1.820103         3.241881        -1.534899
 H        -0.186811         3.349726        -0.564905
 H        -2.234803         0.888371        -0.826830
 H        -1.691942        -0.532754         2.456179
 H        -2.657479        -0.714490         0.875437
