19
Iteration:  2665charge 0 multiplicity 1
 O         0.276277        -0.255196         0.355229
 C        -0.717730         0.610166         0.771725
 C        -0.408806         1.747617         1.668880
 C        -2.015953         2.005724         1.199735
 C        -2.155577         3.448441         0.615604
 C        -1.175333         2.903530        -0.522456
 C        -1.461148         1.442666        -0.208245
 O        -2.747188         1.129998         1.921132
 C        -1.895440        -0.063262         1.580769
 H         0.208592        -0.614989        -0.642607
 H        -0.335004         1.462891         2.663773
 H         0.419299         2.513609         1.436105
 H        -3.180846         3.631817         0.204045
 H        -1.752262         4.195524         1.222662
 H        -1.497086         3.260496        -1.428949
 H        -0.151931         3.078757        -0.172156
 H        -2.216670         0.880355        -0.835949
 H        -1.576217        -0.592993         2.360762
 H        -2.442865        -0.679011         0.865616
