19
Iteration:  2150charge 0 multiplicity 1
 O         0.275461        -0.450635         0.437529
 C        -0.734264         0.567289         0.743633
 C        -0.502082         1.725742         1.630621
 C        -1.955094         2.063964         1.131033
 C        -2.191740         3.488519         0.661325
 C        -1.193289         3.103143        -0.554407
 C        -1.563301         1.501762        -0.244892
 O        -2.618053         1.085015         1.977591
 C        -1.925402        -0.114470         1.536757
 H         1.091429         0.061169         0.092843
 H        -0.132379         1.647997         2.644211
 H         0.282566         2.395262         1.126119
 H        -3.161805         3.498443         0.275812
 H        -1.785486         4.385793         1.246645
 H        -1.586011         3.370443        -1.556817
 H        -0.073064         3.393929        -0.378597
 H        -2.153899         0.929968        -0.973166
 H        -1.685181        -0.846166         2.510465
 H        -2.555539        -0.756651         0.889568
