19
Iteration:  3440charge 0 multiplicity 1
 O         0.342982        -0.399343         0.403100
 C        -0.712226         0.556834         0.751935
 C        -0.445124         1.785576         1.603603
 C        -1.904133         2.077375         1.179548
 C        -2.254038         3.473646         0.594916
 C        -1.243318         3.044681        -0.554409
 C        -1.479354         1.481606        -0.164005
 O        -2.674388         1.121865         1.937604
 C        -1.915891        -0.068225         1.552034
 H         0.001330        -1.377426         0.219282
 H        -0.264189         1.535240         2.670899
 H         0.326542         2.458463         1.260112
 H        -3.299812         3.302441         0.310340
 H        -1.988122         4.394945         1.246652
 H        -1.365239         3.067121        -1.682381
 H        -0.251148         3.417244        -0.427016
 H        -2.323445         1.076421        -0.653355
 H        -1.671054        -0.626043         2.551987
 H        -2.425530        -0.752571         0.852174
