19
Iteration:  4818
 O         0.200829        -0.434506         0.314437
 C        -0.729041         0.542022         0.799650
 C        -0.396597         1.856098         1.623528
 C        -1.883716         2.131425         1.202346
 C        -2.227205         3.395066         0.544924
 C        -1.389872         2.928403        -0.711787
 C        -1.504244         1.459334        -0.160746
 O        -2.571596         1.183816         2.033145
 C        -1.825244        -0.067661         1.618185
 H         0.760066        -0.821314         1.145152
 H        -0.393797         1.697974         2.758330
 H         0.261236         2.644220         1.249690
 H        -3.271980         3.539317         0.155113
 H        -1.694227         4.314578         1.045752
 H        -1.752787         3.140248        -1.669012
 H        -0.332229         3.361631        -0.536345
 H        -2.369429         1.019801        -0.718934
 H        -1.452796        -0.765332         2.403033
 H        -2.368088        -0.787808         0.973001
