19
Iteration:  2737
 O         0.341996        -0.414427         0.517158
 C        -0.626876         0.598900         0.724277
 C        -0.475973         1.807085         1.628095
 C        -1.855993         2.062532         1.254777
 C        -2.181796         3.392937         0.689204
 C        -1.309874         3.023786        -0.561095
 C        -1.481791         1.497454        -0.262444
 O        -2.672822         1.107077         1.912372
 C        -1.966868        -0.063513         1.402273
 H        -0.349863        -1.129353         0.134513
 H        -0.286833         1.646678         2.752751
 H         0.255714         2.485568         1.247624
 H        -3.168124         3.610205         0.305588
 H        -1.674799         4.244863         1.360752
 H        -1.923925         3.258295        -1.455744
 H        -0.247702         3.400236        -0.467918
 H        -2.292315         1.234129        -0.921806
 H        -1.645264        -0.762640         2.397829
 H        -2.591108        -0.632930         0.640144
