19
Iteration:  3691charge 0 multiplicity 1
 O         0.161479        -0.478024         0.367261
 C        -0.633351         0.624015         0.798188
 C        -0.354250         1.844377         1.663215
 C        -1.858271         2.152500         1.210072
 C        -2.219977         3.416504         0.575610
 C        -1.317946         2.906973        -0.677510
 C        -1.534961         1.510532        -0.134561
 O        -2.687052         1.081618         1.971871
 C        -1.853849        -0.090605         1.581741
 H         1.081093         0.008350         0.048204
 H        -0.399612         1.765757         2.772185
 H         0.406147         2.619716         1.399030
 H        -3.210542         3.461396         0.219529
 H        -1.888890         4.353326         1.137180
 H        -1.726703         3.185584        -1.624430
 H        -0.257851         3.325990        -0.719578
 H        -2.399778         0.982788        -0.653849
 H        -1.361763        -0.724107         2.341923
 H        -2.583213        -0.747745         0.820308
