19
Iteration:  1546
 O         0.313576        -0.393178         0.502083
 C        -0.779782         0.569275         0.682420
 C        -0.379254         1.803867         1.563924
 C        -1.867638         2.074355         1.210284
 C        -2.117330         3.451044         0.706820
 C        -1.292197         2.961391        -0.543243
 C        -1.588797         1.503150        -0.199343
 O        -2.703942         1.125123         1.925051
 C        -1.901622        -0.085947         1.535486
 H         0.656247        -0.432222        -0.468697
 H        -0.270699         1.340811         2.509575
 H         0.347241         2.560882         1.108499
 H        -3.110717         3.395931         0.305963
 H        -1.943798         4.317468         1.298035
 H        -1.680512         3.210878        -1.558164
 H        -0.251068         3.178014        -0.607193
 H        -2.403873         1.077719        -0.745263
 H        -1.488175        -0.740564         2.426503
 H        -2.506694        -0.676597         0.794166
