19
Iteration:  4705charge 0 multiplicity 1
 O         0.310582        -0.342745         0.294551
 C        -0.759186         0.561366         0.754346
 C        -0.439534         1.808663         1.590038
 C        -1.886896         2.114389         1.143602
 C        -2.100471         3.434393         0.559368
 C        -1.320060         2.883298        -0.623395
 C        -1.606588         1.402399        -0.182056
 O        -2.656500         1.187828         2.053409
 C        -1.866392        -0.082693         1.668761
 H         0.830330        -0.473607         1.009541
 H        -0.297216         1.608504         2.658329
 H         0.276501         2.564294         1.158303
 H        -3.229171         3.480833         0.255551
 H        -1.730728         4.480885         1.061866
 H        -1.901670         3.016453        -1.568082
 H        -0.363079         3.241382        -0.643582
 H        -2.286550         0.822205        -0.741558
 H        -1.554765        -0.678248         2.566330
 H        -2.475525        -0.775438         1.107868
