19
Iteration:  1689charge 0 multiplicity 1
 O         0.267568        -0.436987         0.413570
 C        -0.669007         0.540485         0.784783
 C        -0.442245         1.796845         1.708971
 C        -1.899710         2.116067         1.263864
 C        -2.158054         3.511229         0.654744
 C        -1.274561         3.025273        -0.627445
 C        -1.491248         1.539056        -0.090808
 O        -2.746087         1.056929         1.863136
 C        -1.884186        -0.166784         1.467982
 H         0.217131        -0.434507        -0.617161
 H        -0.196462         1.664048         2.703676
 H         0.201777         2.526262         1.071789
 H        -3.194654         3.764306         0.593786
 H        -1.613910         4.321717         1.186248
 H        -1.579262         3.148722        -1.614629
 H        -0.252326         3.428492        -0.615697
 H        -2.220758         1.087666        -0.669321
 H        -1.494842        -0.820731         2.349588
 H        -2.401747        -0.689078         0.611303
