19
Iteration:  1587
 O         0.304987        -0.341876         0.274365
 C        -0.649002         0.539526         0.733356
 C        -0.423962         1.746560         1.708110
 C        -1.896345         2.090245         1.256582
 C        -2.174098         3.458628         0.644242
 C        -1.242698         3.022905        -0.599935
 C        -1.474134         1.453380        -0.183243
 O        -2.705740         1.130791         1.943527
 C        -1.926178        -0.079913         1.559280
 H        -0.073544        -1.231698         0.218875
 H        -0.521765         1.496908         2.822962
 H         0.265202         2.524684         1.553730
 H        -3.268359         3.403013         0.198088
 H        -1.905815         4.351737         1.201952
 H        -1.872979         3.197326        -1.557411
 H        -0.282988         3.557851        -0.767150
 H        -2.322098         1.018647        -0.865502
 H        -1.672252        -0.561774         2.561472
 H        -2.503223        -0.882870         1.086856
