19
Iteration:  4632
 O         0.173465        -0.392917         0.310311
 C        -0.616705         0.545978         0.720165
 C        -0.371144         1.908655         1.636070
 C        -1.892938         2.059850         1.142329
 C        -2.211604         3.496148         0.569761
 C        -1.366321         2.975524        -0.665804
 C        -1.518533         1.345488        -0.195396
 O        -2.620903         1.145221         1.986007
 C        -1.832649        -0.067363         1.715876
 H         0.507753        -0.889052         0.982464
 H        -0.517646         1.701034         2.703584
 H         0.418949         2.619837         1.408529
 H        -3.194770         3.641500         0.167562
 H        -1.997717         4.247622         1.182152
 H        -1.753385         3.179298        -1.643863
 H        -0.234648         3.087182        -0.513093
 H        -2.430854         0.861640        -0.595202
 H        -1.517966        -0.558277         2.682184
 H        -2.416729        -0.828472         1.162977
