19
Iteration:  4274charge 0 multiplicity 1
 O         0.300913        -0.508034         0.411325
 C        -0.698783         0.637300         0.775133
 C        -0.441591         1.816809         1.638828
 C        -1.888482         2.081108         1.218783
 C        -2.225101         3.431027         0.568989
 C        -1.346733         2.917001        -0.720731
 C        -1.518384         1.500363        -0.190754
 O        -2.644142         1.131826         1.993455
 C        -1.853036        -0.053230         1.642639
 H         0.778508        -0.208873        -0.319765
 H        -0.276586         1.652131         2.683865
 H         0.294428         2.567444         1.387831
 H        -3.177108         3.663756         0.483031
 H        -1.772428         4.311043         1.073224
 H        -1.894357         3.063004        -1.661328
 H        -0.350022         3.346917        -0.862855
 H        -2.421780         1.044782        -0.723088
 H        -1.422037        -0.452853         2.555628
 H        -2.616810        -0.672712         1.081294
