19
Iteration:  1985charge 0 multiplicity 1
 O         0.267615        -0.422594         0.384423
 C        -0.676518         0.565360         0.713736
 C        -0.426834         1.705512         1.666259
 C        -1.839206         2.086052         1.237033
 C        -2.203036         3.411428         0.676697
 C        -1.300925         2.972090        -0.569322
 C        -1.505398         1.483051        -0.193612
 O        -2.745765         1.190730         1.889672
 C        -1.876847        -0.047554         1.491054
 H         1.072115         0.010488         0.413488
 H        -0.507022         1.487296         2.783574
 H         0.350010         2.399831         1.546776
 H        -3.214515         3.314047         0.329251
 H        -1.887743         4.343699         1.232102
 H        -1.762537         3.176478        -1.605078
 H        -0.293916         3.337368        -0.485054
 H        -2.233450         0.981230        -0.863930
 H        -1.463446        -0.536113         2.468234
 H        -2.484183        -0.650601         0.892847
