19
Iteration:  2816charge 0 multiplicity 1
 O         0.314347        -0.306484         0.311278
 C        -0.676917         0.492303         0.816222
 C        -0.517525         1.778585         1.756087
 C        -1.972112         2.079561         1.127984
 C        -2.075307         3.518697         0.656220
 C        -1.239847         2.917581        -0.561624
 C        -1.446547         1.440122        -0.110014
 O        -2.755720         1.063159         1.904998
 C        -1.903484        -0.054139         1.550647
 H         0.075380        -0.573921        -0.691799
 H        -0.350827         1.701132         2.776225
 H         0.221392         2.520884         1.281491
 H        -3.034637         3.699424         0.346667
 H        -1.837641         4.517899         1.082841
 H        -1.656423         3.059921        -1.526382
 H        -0.228635         3.413140        -0.656367
 H        -2.080715         1.047073        -0.911710
 H        -1.519578        -0.650037         2.517924
 H        -2.561312        -0.651399         0.864914
