19
Iteration:  1047charge 0 multiplicity 1
 O         0.326908        -0.327334         0.339557
 C        -0.688963         0.557102         0.704396
 C        -0.389884         1.699305         1.621726
 C        -1.901964         2.033870         1.266472
 C        -2.164799         3.409161         0.649360
 C        -1.328088         2.936410        -0.628825
 C        -1.559022         1.496248        -0.163903
 O        -2.695528         1.158741         1.946287
 C        -1.882410        -0.003036         1.550416
 H         0.354989        -0.988929         1.035280
 H        -0.240039         1.608045         2.716472
 H         0.251576         2.371201         1.141495
 H        -3.182257         3.512181         0.272291
 H        -1.839756         4.301540         1.143635
 H        -1.776408         3.355980        -1.586899
 H        -0.321439         3.223464        -0.709091
 H        -2.497255         1.169609        -0.772882
 H        -1.400814        -0.381710         2.430757
 H        -2.482735        -0.753373         1.119245
