19
Iteration:  2716
 O         0.327977        -0.385805         0.516087
 C        -0.700237         0.580715         0.760924
 C        -0.351446         1.662912         1.704813
 C        -1.852425         2.087832         1.169576
 C        -2.184122         3.537799         0.667969
 C        -1.354054         3.071118        -0.623976
 C        -1.538211         1.515928        -0.168284
 O        -2.721829         1.064555         1.833946
 C        -1.916884        -0.053464         1.436326
 H        -0.007179        -1.290040         0.243242
 H        -0.156865         1.467916         2.808506
 H         0.384971         2.350349         1.305869
 H        -3.223425         3.565776         0.624943
 H        -1.833255         4.396853         1.421161
 H        -1.880282         3.137422        -1.584039
 H        -0.213308         3.322446        -0.658380
 H        -2.294533         0.994183        -0.827340
 H        -1.411505        -0.635687         2.411600
 H        -2.309756        -0.730447         0.648959
