19
Iteration:  1506
 O         0.197018        -0.462241         0.263441
 C        -0.623197         0.548224         0.762296
 C        -0.465014         1.794153         1.763445
 C        -1.828642         2.144721         1.196665
 C        -2.185518         3.488960         0.596107
 C        -1.330812         2.963374        -0.632432
 C        -1.471796         1.502044        -0.171162
 O        -2.676097         1.116409         1.929320
 C        -1.892317        -0.147874         1.610334
 H         1.078400        -0.167843         0.382537
 H        -0.516267         1.713189         2.825970
 H         0.537399         2.358344         1.585919
 H        -3.225570         3.634883         0.426842
 H        -1.887454         4.478067         1.189284
 H        -2.016535         3.045628        -1.392839
 H        -0.336100         3.422384        -0.857605
 H        -2.220433         1.022362        -0.778991
 H        -1.617847        -0.655923         2.459873
 H        -2.580492        -0.580407         0.930061
