19
Iteration:  3346charge 0 multiplicity 1
 O         0.308582        -0.353233         0.426582
 C        -0.725264         0.541377         0.777305
 C        -0.469961         1.794732         1.663104
 C        -1.913438         2.107011         1.226168
 C        -2.147510         3.434810         0.622858
 C        -1.260990         2.903780        -0.552660
 C        -1.515073         1.452215        -0.221097
 O        -2.686117         1.151439         1.933016
 C        -1.892342        -0.070397         1.510245
 H         0.196055        -0.519515        -0.476788
 H        -0.227017         1.668137         2.769945
 H         0.314058         2.420469         1.287429
 H        -3.155720         3.411961         0.059110
 H        -1.907855         4.273447         1.264417
 H        -1.594201         3.071517        -1.509980
 H        -0.181939         3.369637        -0.492694
 H        -2.252128         1.021329        -0.977969
 H        -1.438671        -0.463738         2.371003
 H        -2.632613        -0.718939         1.011901
