19
Iteration:  4797
 O         0.249042        -0.422379         0.320260
 C        -0.687075         0.565521         0.771268
 C        -0.369328         1.878678         1.622461
 C        -1.836543         2.100748         1.185248
 C        -2.297978         3.446446         0.563161
 C        -1.335025         2.924359        -0.627804
 C        -1.565520         1.384325        -0.152351
 O        -2.541943         1.159531         2.047016
 C        -1.944796         0.008118         1.582101
 H         0.566181        -0.802732         1.180968
 H         0.065815         1.680540         2.643699
 H         0.371748         2.444311         1.028612
 H        -3.277385         3.234128         0.085820
 H        -2.251886         4.484327         0.985797
 H        -1.669839         3.087352        -1.639725
 H        -0.161693         3.061477        -0.649965
 H        -2.419582         0.981517        -0.790480
 H        -1.567167        -0.676731         2.356094
 H        -2.548792        -0.714622         0.958888
