19
Iteration:  2245
 O         0.263523        -0.411714         0.403115
 C        -0.681462         0.568537         0.701787
 C        -0.380844         1.742360         1.636006
 C        -1.913026         2.079317         1.221731
 C        -2.175494         3.429763         0.613271
 C        -1.167674         3.008439        -0.518782
 C        -1.585054         1.494402        -0.190978
 O        -2.748583         1.091121         1.944537
 C        -1.936842        -0.046343         1.531055
 H         1.091555         0.122189         0.029572
 H        -0.155286         1.623676         2.708509
 H         0.395784         2.448543         1.187481
 H        -3.244792         3.336839         0.153557
 H        -1.984150         4.205290         1.389672
 H        -1.582285         3.231084        -1.507021
 H        -0.126520         3.256115        -0.387107
 H        -2.412666         1.157650        -0.911484
 H        -1.579989        -0.565888         2.332193
 H        -2.578022        -0.741362         0.879979
