19
Iteration:  4322
 O         0.310908        -0.346513         0.262974
 C        -0.682539         0.487973         0.723972
 C        -0.391515         1.807429         1.597559
 C        -1.876407         2.044591         1.192002
 C        -2.197731         3.412441         0.601079
 C        -1.312586         2.853331        -0.689898
 C        -1.598072         1.395266        -0.132304
 O        -2.697600         1.252101         2.013521
 C        -1.883285        -0.030946         1.654334
 H         0.948231        -0.318707         1.055828
 H        -0.138928         1.712071         2.729963
 H         0.314027         2.610410         1.242910
 H        -3.350016         3.540803         0.354639
 H        -2.009272         4.209080         1.278016
 H        -1.663616         3.224777        -1.669971
 H        -0.229725         3.238752        -0.540331
 H        -2.328691         0.918264        -0.780387
 H        -1.471045        -0.357847         2.632715
 H        -2.596429        -0.642757         1.265640
