19
Iteration:  2333charge 0 multiplicity 1
 O         0.307897        -0.397223         0.382648
 C        -0.702406         0.520033         0.827794
 C        -0.475023         1.719130         1.732355
 C        -1.885701         2.086104         1.180741
 C        -2.140169         3.491231         0.647682
 C        -1.236403         3.027891        -0.645165
 C        -1.542758         1.547842        -0.189536
 O        -2.710212         1.107300         1.895703
 C        -1.897540        -0.140523         1.524730
 H         0.691249        -0.108043        -0.509583
 H        -0.160604         1.553516         2.733057
 H         0.319758         2.477866         1.365978
 H        -3.269595         3.575223         0.516499
 H        -2.007578         4.315368         1.450222
 H        -1.640007         3.197816        -1.609389
 H        -0.188444         3.341853        -0.492003
 H        -2.421598         1.030542        -0.734741
 H        -1.779014        -0.664858         2.412696
 H        -2.562069        -0.836840         0.835593
