19
Iteration:   483
 O         0.249357        -0.339873         0.336060
 C        -0.662350         0.603336         0.741476
 C        -0.510535         1.797743         1.633287
 C        -1.926410         2.063007         1.130977
 C        -2.157073         3.438142         0.641189
 C        -1.282250         2.925967        -0.573481
 C        -1.565846         1.425404        -0.212078
 O        -2.629019         1.138921         1.992076
 C        -1.866337        -0.062443         1.570083
 H         0.741081        -0.753849         1.096946
 H        -0.411328         1.655798         2.652133
 H         0.384339         2.517723         1.239082
 H        -3.235227         3.614268         0.589499
 H        -1.634526         4.254238         1.176873
 H        -1.524368         3.063257        -1.666871
 H        -0.239326         3.247547        -0.646221
 H        -2.300710         0.963413        -0.834531
 H        -1.506182        -0.770273         2.426129
 H        -2.569232        -0.600412         0.898462
