19
Iteration:  1548charge 0 multiplicity 1
 O         0.324969        -0.385786         0.498687
 C        -0.786498         0.564058         0.679441
 C        -0.375536         1.795156         1.557094
 C        -1.866305         2.055175         1.214181
 C        -2.126692         3.455170         0.701231
 C        -1.284829         2.967264        -0.551383
 C        -1.595742         1.487634        -0.195439
 O        -2.691067         1.124543         1.919665
 C        -1.920618        -0.087041         1.538958
 H         0.595151        -0.467030        -0.396247
 H        -0.272053         1.344914         2.490893
 H         0.394909         2.617286         1.135280
 H        -3.091021         3.475427         0.332435
 H        -2.002096         4.381869         1.326333
 H        -1.670962         3.214283        -1.492155
 H        -0.233936         3.213900        -0.557326
 H        -2.400906         1.110068        -0.714535
 H        -1.511273        -0.610680         2.404806
 H        -2.492338        -0.682545         0.819504
