19
Iteration:   898charge 0 multiplicity 1
 O         0.273290        -0.351758         0.267675
 C        -0.649612         0.562613         0.775844
 C        -0.381531         1.772888         1.742561
 C        -1.886233         2.087790         1.255553
 C        -2.140504         3.476078         0.607455
 C        -1.367953         2.952104        -0.676923
 C        -1.561556         1.467269        -0.122718
 O        -2.670266         1.073354         1.911849
 C        -1.906895        -0.040623         1.556480
 H         0.579350        -0.971210         0.901861
 H        -0.197852         1.655636         2.858289
 H         0.306325         2.490034         1.349672
 H        -3.217434         3.749642         0.308105
 H        -1.801224         4.411157         1.079430
 H        -1.959184         3.137373        -1.529507
 H        -0.289940         3.449590        -0.830223
 H        -2.328302         0.901049        -0.707649
 H        -1.573927        -0.630709         2.524284
 H        -2.450253        -0.807679         0.871989
