19
Iteration:  3754
 O         0.281152        -0.443704         0.337058
 C        -0.748232         0.561945         0.760831
 C        -0.403874         1.824094         1.596632
 C        -1.908785         2.085517         1.225413
 C        -2.167059         3.396946         0.581685
 C        -1.301608         2.949143        -0.586790
 C        -1.564726         1.469352        -0.209902
 O        -2.644155         1.123889         1.927241
 C        -1.875513        -0.032026         1.647186
 H         1.212416        -0.105775         0.680930
 H        -0.462431         1.772651         2.668943
 H         0.269742         2.548048         1.212880
 H        -3.232024         3.683980         0.395016
 H        -1.815698         4.194218         1.151924
 H        -1.832449         3.117532        -1.484202
 H        -0.306680         3.349762        -0.579627
 H        -2.447892         0.949722        -0.667870
 H        -1.441496        -0.534515         2.455429
 H        -2.515378        -0.657568         1.115202
