19
Iteration:  1834
 O         0.325523        -0.356423         0.436178
 C        -0.734757         0.517712         0.779780
 C        -0.375525         1.724086         1.615544
 C        -1.823043         2.082567         1.191759
 C        -2.210857         3.451403         0.669924
 C        -1.224888         3.039998        -0.560643
 C        -1.512025         1.482983        -0.190910
 O        -2.721830         1.123275         1.845853
 C        -1.961449        -0.116496         1.550471
 H         0.265193        -0.471775        -0.467759
 H        -0.303284         1.670656         2.790103
 H         0.287336         2.472108         1.316856
 H        -3.228051         3.682434         0.501175
 H        -2.017340         4.396537         1.282743
 H        -1.647900         3.395510        -1.590464
 H        -0.180998         3.262686        -0.459412
 H        -2.403618         1.012042        -0.542839
 H        -1.769026        -0.771221         2.471059
 H        -2.561873        -0.840125         0.878652
