19
Iteration:  4988
 O         0.270646        -0.329987         0.275431
 C        -0.715936         0.622305         0.806880
 C        -0.466090         1.891372         1.594134
 C        -1.913402         2.091607         1.207145
 C        -2.080650         3.469345         0.561770
 C        -1.282163         2.810167        -0.646453
 C        -1.581856         1.343877        -0.200923
 O        -2.671224         1.152102         2.062903
 C        -1.843840        -0.082152         1.624143
 H         0.452513        -0.960005         1.137968
 H        -0.350588         1.935278         2.676068
 H         0.287343         2.450734         1.058394
 H        -3.050200         3.683760         0.213998
 H        -1.745238         4.304807         1.072646
 H        -1.773116         3.090192        -1.626405
 H        -0.359682         3.348152        -0.818216
 H        -2.516694         0.826161        -0.603346
 H        -1.424223        -0.605705         2.473759
 H        -2.518657        -0.715947         1.003131
