19
Iteration:  4579charge 0 multiplicity 1
 O         0.295494        -0.287524         0.290255
 C        -0.706828         0.537315         0.813022
 C        -0.356955         1.821658         1.679994
 C        -1.907737         2.081246         1.220327
 C        -2.101930         3.402461         0.484772
 C        -1.408544         2.867739        -0.664179
 C        -1.637601         1.388768        -0.168934
 O        -2.603197         1.175629         1.992409
 C        -1.886129        -0.017436         1.652741
 H         0.431338        -1.026602         0.757318
 H        -0.238748         1.834819         2.778666
 H         0.438393         2.325783         1.129146
 H        -3.178169         3.430224         0.398357
 H        -1.779971         4.332434         1.090052
 H        -1.757216         3.159322        -1.652114
 H        -0.271031         3.289479        -0.578695
 H        -2.504487         0.914958        -0.770462
 H        -1.683330        -0.510973         2.586117
 H        -2.478360        -0.667693         0.886706
