19
Iteration:  1584
 O         0.328075        -0.347658         0.284837
 C        -0.691150         0.528431         0.749830
 C        -0.434084         1.740172         1.678265
 C        -1.895866         2.062676         1.245731
 C        -2.166044         3.469141         0.640714
 C        -1.266105         3.028222        -0.607938
 C        -1.465885         1.463260        -0.191216
 O        -2.710097         1.148991         1.949777
 C        -1.914626        -0.097149         1.578879
 H        -0.054580        -1.187031         0.127498
 H        -0.466959         1.521633         2.805241
 H         0.347763         2.490976         1.627883
 H        -3.236992         3.418801         0.241258
 H        -1.937771         4.439020         1.236805
 H        -1.829993         3.213749        -1.545786
 H        -0.274850         3.556127        -0.668348
 H        -2.294492         1.076757        -0.874260
 H        -1.695689        -0.547600         2.479310
 H        -2.447423        -0.869854         1.046335
