19
Iteration:  3435
 O         0.344136        -0.400844         0.394161
 C        -0.676208         0.501908         0.770334
 C        -0.444221         1.808989         1.609472
 C        -1.895634         2.079598         1.214665
 C        -2.251214         3.512552         0.592992
 C        -1.245037         3.018456        -0.559713
 C        -1.488933         1.456739        -0.149711
 O        -2.700212         1.123639         1.943059
 C        -1.890550        -0.079433         1.531199
 H        -0.115623        -1.239878         0.347688
 H        -0.341581         1.583751         2.667032
 H         0.297741         2.459761         1.068517
 H        -3.287105         3.479264         0.104126
 H        -2.042781         4.315363         1.262195
 H        -1.461641         3.235705        -1.607556
 H        -0.234675         3.488831        -0.394859
 H        -2.360972         1.031573        -0.787155
 H        -1.556128        -0.578876         2.386004
 H        -2.508522        -0.656206         0.814460
