19
Iteration:  1814charge 0 multiplicity 1
 O         0.380796        -0.396988         0.374286
 C        -0.698904         0.532765         0.771594
 C        -0.404364         1.687958         1.766951
 C        -1.842061         2.066021         1.246283
 C        -2.123187         3.476813         0.633435
 C        -1.332639         3.027215        -0.605874
 C        -1.457194         1.538500        -0.112397
 O        -2.800084         1.120508         1.791298
 C        -1.962266        -0.047416         1.539801
 H         0.075050        -0.610180        -0.575574
 H         0.012504         1.670505         2.878289
 H         0.446355         2.150645         1.289414
 H        -3.241310         3.600933         0.486617
 H        -1.908994         4.416033         1.160470
 H        -1.993962         2.984115        -1.514244
 H        -0.387668         3.604415        -0.632237
 H        -2.214076         0.976671        -0.707844
 H        -1.600360        -0.581218         2.447489
 H        -2.643642        -0.902108         1.005193
