19
Iteration:  3609
 O         0.316635        -0.348735         0.327724
 C        -0.708695         0.557942         0.778435
 C        -0.404476         1.778097         1.707424
 C        -1.898109         2.102888         1.204501
 C        -2.212183         3.486713         0.573084
 C        -1.276135         2.981888        -0.646388
 C        -1.551848         1.420610        -0.149644
 O        -2.630988         1.104363         1.970904
 C        -1.896519        -0.070539         1.555758
 H         0.114534        -1.319773         0.472386
 H        -0.372876         1.780155         2.799735
 H         0.306676         2.596492         1.343994
 H        -3.294257         3.635967         0.185868
 H        -1.870118         4.350105         1.204138
 H        -1.729470         2.976778        -1.691138
 H        -0.236455         3.440101        -0.733619
 H        -2.407458         1.060125        -0.757635
 H        -1.501156        -0.655884         2.470361
 H        -2.613678        -0.774899         1.012919
