19
Iteration:  4922charge 0 multiplicity 1
 O         0.197804        -0.400772         0.324992
 C        -0.654747         0.545230         0.762727
 C        -0.282093         1.858435         1.647136
 C        -1.872885         2.152552         1.148610
 C        -2.302828         3.416389         0.541686
 C        -1.341667         2.902269        -0.637978
 C        -1.510633         1.394177        -0.160256
 O        -2.597167         1.200764         1.992629
 C        -1.923162        -0.060281         1.646637
 H         0.704626        -0.784339         1.029371
 H        -0.045405         1.703727         2.711503
 H         0.579020         2.343425         1.194025
 H        -3.352292         3.376304         0.352934
 H        -2.124349         4.257445         1.102925
 H        -1.685223         2.998165        -1.763082
 H        -0.334388         3.328751        -0.611123
 H        -2.476646         0.981470        -0.651395
 H        -1.645115        -0.595932         2.574158
 H        -2.589498        -0.642227         0.955221
