19
Iteration:  4292charge 0 multiplicity 1
 O         0.170598        -0.409323         0.394080
 C        -0.672703         0.512216         0.771957
 C        -0.398912         1.838913         1.656328
 C        -1.897693         2.088728         1.201679
 C        -2.128428         3.525123         0.492936
 C        -1.351149         2.948276        -0.699807
 C        -1.614027         1.428544        -0.143188
 O        -2.662473         1.074554         2.023334
 C        -1.769141        -0.075694         1.612753
 H         0.997048        -0.019710         0.428357
 H        -0.140325         1.764531         2.707045
 H         0.284464         2.575046         1.186578
 H        -3.267636         3.600292         0.112229
 H        -1.872083         4.404262         1.130767
 H        -1.795633         3.309115        -1.680866
 H        -0.338803         3.275714        -0.702618
 H        -2.328505         0.897572        -0.703593
 H        -1.315819        -0.542795         2.484465
 H        -2.390336        -0.841309         1.014303
