19
Iteration:  2837
 O         0.352315        -0.375186         0.484417
 C        -0.726479         0.625863         0.729461
 C        -0.439316         1.760141         1.721585
 C        -1.916638         2.055524         1.181289
 C        -2.127532         3.407800         0.635058
 C        -1.262227         3.017818        -0.595915
 C        -1.529313         1.504663        -0.274834
 O        -2.712928         1.105707         1.936876
 C        -1.941867        -0.156353         1.498859
 H         0.268131        -0.544101        -0.470597
 H        -0.213246         1.432188         2.689465
 H         0.342911         2.522725         1.355576
 H        -3.078944         3.793983         0.533667
 H        -1.714609         4.312613         1.268375
 H        -1.717178         3.275396        -1.509627
 H        -0.183873         3.397335        -0.566974
 H        -2.284410         1.052247        -0.848996
 H        -1.660967        -0.620011         2.548210
 H        -2.682538        -0.632470         0.882091
