19
Iteration:  3319charge 0 multiplicity 1
 O         0.243801        -0.486526         0.373554
 C        -0.655557         0.519880         0.806197
 C        -0.387321         1.822313         1.763922
 C        -1.910492         2.108392         1.162687
 C        -2.205376         3.446456         0.545388
 C        -1.298690         3.007891        -0.606324
 C        -1.535431         1.527480        -0.211348
 O        -2.702013         1.107450         1.973989
 C        -1.890866        -0.077031         1.559054
 H         0.833823        -0.098191        -0.246355
 H        -0.375590         1.679180         2.825488
 H         0.454485         2.442762         1.312930
 H        -3.179877         3.363340         0.213095
 H        -1.889261         4.307610         1.140644
 H        -1.383702         3.085668        -1.767705
 H        -0.354151         3.389196        -0.363950
 H        -2.171246         1.096776        -0.952683
 H        -1.485190        -0.541383         2.513859
 H        -2.535432        -0.662746         0.898056
