19
Iteration:  1398
 O         0.300350        -0.368957         0.270569
 C        -0.722347         0.508738         0.791352
 C        -0.349383         1.832914         1.689807
 C        -1.819544         2.096015         1.228288
 C        -2.176052         3.456670         0.598173
 C        -1.370227         2.939592        -0.642459
 C        -1.490071         1.542545        -0.040957
 O        -2.697153         1.139755         1.862564
 C        -1.964722        -0.122974         1.549318
 H         0.525056        -1.051587         0.814436
 H        -0.160562         1.577018         2.664202
 H         0.375714         2.529314         1.205442
 H        -3.216981         3.469675         0.488419
 H        -1.746719         4.287146         1.202533
 H        -1.739568         3.057084        -1.595250
 H        -0.271723         3.405198        -0.737573
 H        -2.453374         1.137930        -0.481863
 H        -1.815116        -0.539321         2.562381
 H        -2.454996        -0.975225         1.019626
