19
Iteration:  1206charge 0 multiplicity 1
 O         0.297362        -0.325363         0.183854
 C        -0.670576         0.501465         0.857057
 C        -0.340398         1.741693         1.722732
 C        -1.879968         2.069019         1.252751
 C        -2.195318         3.359438         0.574231
 C        -1.269439         3.038799        -0.664392
 C        -1.520290         1.484760        -0.121996
 O        -2.744264         1.212856         1.868557
 C        -1.957545        -0.105841         1.672443
 H         0.735732        -0.953555         0.906344
 H        -0.024280         1.620018         2.831268
 H         0.483549         2.276311         1.333233
 H        -3.324265         3.417299         0.197479
 H        -2.060170         4.361795         1.164911
 H        -1.896675         3.035665        -1.656479
 H        -0.268646         3.517141        -0.674225
 H        -2.359745         1.095258        -0.676084
 H        -1.551361        -0.617802         2.547204
 H        -2.598011        -0.751031         1.028398
