19
Iteration:  4903charge 0 multiplicity 1
 O         0.239697        -0.414426         0.280992
 C        -0.687723         0.593835         0.795285
 C        -0.440247         1.807719         1.635633
 C        -1.889457         2.105185         1.274985
 C        -2.182273         3.423522         0.480828
 C        -1.303809         2.882406        -0.699243
 C        -1.582960         1.403319        -0.171868
 O        -2.570539         1.165664         2.113635
 C        -1.896012        -0.024265         1.578538
 H         0.745547        -0.633147         0.991857
 H        -0.361812         1.838931         2.741464
 H         0.104857         2.615627         1.190062
 H        -3.224579         3.417531         0.068892
 H        -1.849799         4.465848         0.874203
 H        -1.741720         3.142936        -1.632874
 H        -0.338002         3.283984        -0.521123
 H        -2.313250         0.910512        -0.723737
 H        -1.422782        -0.602032         2.435982
 H        -2.529706        -0.496297         0.895772
