19
Iteration:  4869charge 0 multiplicity 1
 O         0.267348        -0.263564         0.256523
 C        -0.701906         0.547459         0.793469
 C        -0.395878         1.753870         1.628355
 C        -1.898858         2.132911         1.209010
 C        -2.081032         3.458371         0.558319
 C        -1.348533         2.848098        -0.650197
 C        -1.631022         1.315026        -0.189579
 O        -2.662511         1.161484         1.943791
 C        -1.886489        -0.031127         1.728632
 H         0.887249        -0.661009         0.936906
 H        -0.222712         1.924738         2.695962
 H         0.236322         2.445672         1.096406
 H        -3.168802         3.637684         0.407782
 H        -1.663935         4.391441         1.006318
 H        -1.683666         3.177012        -1.663971
 H        -0.376433         3.228809        -0.632275
 H        -2.451207         0.803684        -0.643158
 H        -1.482305        -0.498922         2.690355
 H        -2.446645        -0.842229         1.319786
