19
Iteration:  3992charge 0 multiplicity 1
 O         0.371120        -0.433217         0.444648
 C        -0.693941         0.506975         0.734617
 C        -0.396175         1.695703         1.637265
 C        -1.860979         2.069857         1.180813
 C        -2.249144         3.431414         0.573891
 C        -1.342743         3.099984        -0.562691
 C        -1.592506         1.482657        -0.205138
 O        -2.636235         1.207092         1.913752
 C        -1.864476        -0.064187         1.644687
 H         0.161934        -0.887621        -0.432397
 H        -0.202375         1.638362         2.699311
 H         0.471270         2.314590         1.248526
 H        -3.283108         3.350864         0.256892
 H        -2.161979         4.374273         1.030778
 H        -1.809072         3.123755        -1.641426
 H        -0.298164         3.438947        -0.540622
 H        -2.394675         1.148685        -0.782407
 H        -1.678155        -0.526404         2.696514
 H        -2.571880        -0.756501         1.058099
