19
Iteration:  4864charge 0 multiplicity 1
 O         0.267171        -0.260711         0.257717
 C        -0.684853         0.517391         0.786587
 C        -0.442521         1.799300         1.641554
 C        -1.863310         2.075421         1.210433
 C        -2.084294         3.469755         0.545800
 C        -1.373851         2.876479        -0.629211
 C        -1.610564         1.333631        -0.188515
 O        -2.687120         1.180412         1.907356
 C        -1.848327        -0.010643         1.741528
 H         0.916201        -0.716921         0.901739
 H        -0.025351         1.657564         2.700157
 H         0.216502         2.362247         0.916416
 H        -3.166243         3.500462         0.487717
 H        -1.575269         4.274091         1.069816
 H        -1.795718         3.118549        -1.676133
 H        -0.224409         3.132201        -0.584026
 H        -2.586659         0.728771        -0.507693
 H        -1.638449        -0.362426         2.737178
 H        -2.528271        -0.871033         1.368865
