19
Iteration:   135charge 0 multiplicity 1
 O         0.234017        -0.414361         0.260172
 C        -0.678834         0.566199         0.850354
 C        -0.393929         1.725711         1.780955
 C        -1.901384         2.083725         1.168059
 C        -2.205030         3.505691         0.575767
 C        -1.359678         2.977096        -0.722997
 C        -1.494951         1.484634        -0.106126
 O        -2.657079         1.146685         1.930059
 C        -1.889137        -0.094414         1.613496
 H         1.028960        -0.514480         0.780960
 H        -0.324547         1.532773         2.801215
 H         0.593837         2.362632         1.621565
 H        -3.183116         3.756513         0.184935
 H        -1.793364         4.434597         1.004071
 H        -1.897722         2.994899        -1.737078
 H        -0.382572         3.423603        -0.997691
 H        -2.241950         0.903731        -0.787213
 H        -1.551372        -0.482318         2.549218
 H        -2.425023        -0.846124         0.983020
