19
Iteration:  2237charge 0 multiplicity 1
 O         0.242998        -0.419809         0.362745
 C        -0.690275         0.642435         0.767663
 C        -0.423115         1.786464         1.672816
 C        -1.901528         2.015846         1.170469
 C        -2.132969         3.404596         0.620533
 C        -1.221277         2.981837        -0.523737
 C        -1.544122         1.472036        -0.182701
 O        -2.729186         1.111360         1.943467
 C        -1.933997        -0.055777         1.521052
 H         1.084260        -0.082066        -0.179739
 H        -0.258400         1.415972         2.697538
 H         0.382582         2.627105         1.520846
 H        -3.111015         3.545025         0.299881
 H        -2.036402         4.440762         1.123008
 H        -1.629750         3.242282        -1.513910
 H        -0.066556         3.310557        -0.410872
 H        -2.441394         1.097410        -0.752343
 H        -1.622909        -0.683734         2.360497
 H        -2.376829        -0.685944         0.768518
