19
Iteration:  2577charge 0 multiplicity 1
 O         0.274505        -0.539113         0.474765
 C        -0.695493         0.525025         0.755142
 C        -0.405630         1.778802         1.609099
 C        -1.954674         2.112477         1.169837
 C        -2.185278         3.500155         0.659701
 C        -1.300678         3.118178        -0.582978
 C        -1.489145         1.533552        -0.194465
 O        -2.692486         1.032785         1.896626
 C        -1.894433        -0.091011         1.483116
 H         1.227680        -0.182006         0.697372
 H        -0.263970         1.706632         2.717276
 H         0.300082         2.444450         1.154368
 H        -3.234000         3.745781         0.350989
 H        -1.794287         4.370749         1.265757
 H        -1.891835         3.303238        -1.413410
 H        -0.166437         3.456364        -0.604438
 H        -2.414850         1.138603        -0.722440
 H        -1.512469        -0.501492         2.380197
 H        -2.478966        -0.851529         0.800549
