19
Iteration:  2668charge 0 multiplicity 1
 O         0.295575        -0.265633         0.347541
 C        -0.696514         0.601393         0.791494
 C        -0.423560         1.736257         1.656023
 C        -1.991487         2.005637         1.198925
 C        -2.159829         3.442051         0.645479
 C        -1.161775         2.899447        -0.530612
 C        -1.471130         1.444313        -0.237415
 O        -2.764713         1.126398         1.920868
 C        -1.903540        -0.034555         1.566066
 H         0.150202        -0.579266        -0.492425
 H        -0.370784         1.430335         2.698774
 H         0.435231         2.421311         1.431042
 H        -3.245456         3.685865         0.182337
 H        -1.817822         4.259619         1.273976
 H        -1.574134         3.321604        -1.483917
 H        -0.186347         3.196647        -0.285308
 H        -2.191182         0.864731        -0.732096
 H        -1.486712        -0.551021         2.546202
 H        -2.530105        -0.686543         0.852200
