19
Iteration:  1214charge 0 multiplicity 1
 O         0.271217        -0.328686         0.189866
 C        -0.656642         0.514621         0.777413
 C        -0.361190         1.756330         1.743127
 C        -1.825882         2.086978         1.200711
 C        -2.190489         3.382199         0.541555
 C        -1.338542         3.003915        -0.572357
 C        -1.460993         1.466199        -0.154507
 O        -2.760703         1.227375         1.911722
 C        -1.957439        -0.097018         1.673486
 H         0.762697        -1.022238         0.804541
 H        -0.314643         1.371191         2.796837
 H         0.496617         2.450302         1.355166
 H        -3.249119         3.197004         0.279208
 H        -1.987956         4.284276         1.068891
 H        -1.651172         3.142598        -1.512689
 H        -0.357028         3.632971        -0.668707
 H        -2.238578         0.879638        -0.736834
 H        -1.693166        -0.545902         2.645913
 H        -2.460273        -0.851125         1.182886
