19
Iteration:  3974
 O         0.312729        -0.351564         0.341095
 C        -0.640236         0.507422         0.806678
 C        -0.359814         1.794087         1.639189
 C        -1.796919         2.087348         1.173611
 C        -2.296887         3.407680         0.628505
 C        -1.318401         3.020720        -0.650923
 C        -1.485771         1.418063        -0.130772
 O        -2.695579         1.151584         1.903674
 C        -1.977519        -0.040735         1.646156
 H        -0.191903        -1.143147        -0.044235
 H        -0.144958         1.728045         2.715790
 H         0.430687         2.339649         1.184867
 H        -3.364023         3.369034         0.240688
 H        -2.101369         4.322588         1.225215
 H        -1.376373         3.468080        -1.562391
 H        -0.284200         3.428044        -0.497605
 H        -2.392795         0.953795        -0.639636
 H        -1.438427        -0.528673         2.466382
 H        -2.516568        -0.801980         1.009062
