19
Iteration:   464
 O         0.339925        -0.350639         0.325349
 C        -0.782602         0.462671         0.732605
 C        -0.445573         1.799006         1.625960
 C        -1.924181         2.045596         1.186646
 C        -2.173250         3.483846         0.581922
 C        -1.258315         3.027163        -0.616016
 C        -1.582334         1.447578        -0.251589
 O        -2.629752         1.121321         2.035550
 C        -1.902975        -0.098583         1.592608
 H         0.731719        -0.764250         1.209286
 H        -0.329748         1.619916         2.752899
 H         0.310898         2.468487         1.282723
 H        -3.170298         3.722570         0.089796
 H        -1.997995         4.250090         1.319957
 H        -1.599188         3.453929        -1.512232
 H        -0.172867         3.342118        -0.637768
 H        -2.311387         0.996893        -0.828830
 H        -1.389960        -0.383519         2.650086
 H        -2.619751        -0.779712         1.030696
