19
Iteration:  4028charge 0 multiplicity 1
 O         0.236175        -0.408207         0.472746
 C        -0.661192         0.592243         0.797794
 C        -0.421761         1.875865         1.638335
 C        -1.901802         2.030316         1.179939
 C        -2.108851         3.450375         0.619986
 C        -1.344927         2.952846        -0.611788
 C        -1.609981         1.422585        -0.226865
 O        -2.624431         1.122107         1.965658
 C        -1.867239        -0.077533         1.565144
 H         0.601904        -0.158146        -0.469293
 H        -0.308138         1.755645         2.700668
 H         0.182818         2.486891         1.037336
 H        -3.143864         3.637380         0.285838
 H        -1.678528         4.249515         1.171325
 H        -1.875874         3.148976        -1.498337
 H        -0.281603         3.354268        -0.678890
 H        -2.348122         0.858434        -0.822925
 H        -1.556801        -0.812348         2.408068
 H        -2.406820        -0.639167         0.676890
