19
Iteration:  2607
 O         0.250603        -0.429795         0.412053
 C        -0.670982         0.600004         0.773145
 C        -0.346667         1.739542         1.736902
 C        -1.868412         2.063574         1.214321
 C        -2.206052         3.382606         0.681877
 C        -1.360113         2.986322        -0.585998
 C        -1.405398         1.433780        -0.226193
 O        -2.718862         1.139001         1.821348
 C        -1.980818        -0.000506         1.503044
 H         0.932555         0.013236         0.017544
 H        -0.347567         1.522596         2.872076
 H         0.412016         2.395599         1.454982
 H        -3.219254         3.510307         0.577650
 H        -1.867917         4.337322         1.220721
 H        -1.656988         3.417830        -1.559735
 H        -0.293638         3.401261        -0.692995
 H        -2.381997         1.014333        -0.673752
 H        -1.607816        -0.457739         2.360710
 H        -2.435741        -0.705736         0.884247
