19
Iteration:  4339
 O         0.346166        -0.310592         0.240358
 C        -0.690352         0.563138         0.771961
 C        -0.408103         1.740063         1.635982
 C        -1.888162         2.069678         1.219899
 C        -2.174071         3.364979         0.541915
 C        -1.370165         2.937567        -0.633490
 C        -1.534715         1.373809        -0.248555
 O        -2.674943         1.231430         2.043492
 C        -1.946496         0.013269         1.743364
 H         0.814995        -0.862328         0.865744
 H        -0.130129         1.598916         2.660488
 H         0.502815         2.263372         1.297991
 H        -3.173861         3.372056         0.181302
 H        -1.916967         4.423654         0.946476
 H        -1.815401         3.027408        -1.612395
 H        -0.375081         3.355764        -0.776774
 H        -2.377545         0.809108        -0.790924
 H        -1.615911        -0.461500         2.689860
 H        -2.524414        -0.734918         0.985595
