19
Iteration:  1441charge 0 multiplicity 1
 O         0.270879        -0.344490         0.282354
 C        -0.699834         0.546635         0.738361
 C        -0.506865         1.769914         1.668503
 C        -1.926594         2.036747         1.183637
 C        -2.162967         3.421270         0.595863
 C        -1.261502         3.003898        -0.638033
 C        -1.510630         1.471868        -0.202877
 O        -2.611441         1.126399         2.006548
 C        -1.911225        -0.073305         1.617535
 H         0.545089        -0.960627         0.971433
 H        -0.501037         1.710420         2.711374
 H         0.351750         2.499674         1.452794
 H        -3.151389         3.805164         0.368114
 H        -1.575320         4.260504         1.241984
 H        -1.758950         3.149921        -1.552161
 H        -0.222514         3.517677        -0.608152
 H        -2.315486         1.067776        -0.844569
 H        -1.598323        -0.717599         2.425737
 H        -2.584916        -0.700764         1.011951
