19
Iteration:   870
 O         0.363131        -0.290512         0.338994
 C        -0.718040         0.521170         0.700912
 C        -0.437131         1.710634         1.647382
 C        -1.924009         2.067280         1.179632
 C        -2.192022         3.485672         0.685683
 C        -1.279744         2.982364        -0.639121
 C        -1.586721         1.422206        -0.246175
 O        -2.639305         1.176963         2.005239
 C        -1.922444        -0.114359         1.598556
 H         0.518959        -0.948428         0.946967
 H        -0.316973         1.612940         2.693180
 H         0.422476         2.316826         1.132159
 H        -3.166052         3.597896         0.287014
 H        -1.865761         4.378134         1.289297
 H        -1.856681         3.318740        -1.551026
 H        -0.270050         3.289411        -0.567609
 H        -2.300102         1.038194        -1.069300
 H        -1.481422        -0.572792         2.424586
 H        -2.558340        -0.842075         1.145363
