19
Iteration:  3683
 O         0.179291        -0.453503         0.373297
 C        -0.676721         0.603267         0.783610
 C        -0.361389         1.890637         1.714096
 C        -1.888034         2.082417         1.195167
 C        -2.203826         3.435821         0.542267
 C        -1.301229         2.931473        -0.683237
 C        -1.526044         1.480929        -0.135679
 O        -2.681222         1.050065         1.993975
 C        -1.862321        -0.046305         1.581479
 H         0.958601        -0.115283        -0.228034
 H        -0.213767         1.535833         2.739344
 H         0.498817         2.490870         1.296492
 H        -3.207528         3.719838         0.267182
 H        -1.832475         4.374266         1.138180
 H        -1.918223         3.064979        -1.576808
 H        -0.269435         3.394882        -0.690278
 H        -2.243831         1.057165        -0.782920
 H        -1.556777        -0.637276         2.488623
 H        -2.372189        -0.708734         0.869062
