19
Iteration:  1277
 O         0.342806        -0.328151         0.322457
 C        -0.738782         0.525225         0.769988
 C        -0.419979         1.746471         1.662874
 C        -1.909088         2.091630         1.188952
 C        -2.173957         3.496416         0.638443
 C        -1.297176         2.944423        -0.663110
 C        -1.544688         1.474234        -0.158598
 O        -2.699822         1.137565         1.974368
 C        -1.896469        -0.103796         1.522728
 H         0.654021        -0.811294         1.217220
 H        -0.150336         1.550159         2.681767
 H         0.450109         2.395682         1.200222
 H        -3.151295         3.766122         0.440241
 H        -1.772374         4.231707         1.307960
 H        -1.874853         3.077954        -1.593313
 H        -0.186970         3.325921        -0.682671
 H        -2.332656         1.105779        -0.883973
 H        -1.623579        -0.556065         2.526154
 H        -2.555754        -0.861556         0.859525
