19
Iteration:   788charge 0 multiplicity 1
 O         0.332354        -0.346521         0.237631
 C        -0.691642         0.566655         0.750579
 C        -0.372583         1.777976         1.693804
 C        -1.911374         2.083755         1.237774
 C        -2.173931         3.449749         0.649369
 C        -1.367985         2.890759        -0.573409
 C        -1.509157         1.407348        -0.192551
 O        -2.693052         1.139497         1.919577
 C        -1.943031         0.005770         1.590711
 H         0.744152        -0.717437         1.016067
 H        -0.039090         1.480723         2.720669
 H         0.360036         2.356764         1.261347
 H        -3.244154         3.469294         0.269442
 H        -1.997132         4.414566         1.070609
 H        -1.617620         3.284856        -1.497033
 H        -0.313028         3.201765        -0.564102
 H        -2.413370         0.978510        -0.698969
 H        -1.544157        -0.469123         2.474357
 H        -2.545233        -0.602871         0.913316
