19
Iteration:  2769
 O         0.377055        -0.300485         0.387527
 C        -0.723675         0.531160         0.745096
 C        -0.434272         1.658357         1.668954
 C        -1.913158         2.095762         1.211861
 C        -2.215613         3.448667         0.572460
 C        -1.177766         3.008756        -0.505192
 C        -1.537367         1.494590        -0.173656
 O        -2.705182         1.154220         1.896089
 C        -1.950577        -0.123523         1.571781
 H         0.063848        -0.783832        -0.355566
 H        -0.408081         1.393128         2.785581
 H         0.430267         2.192653         1.360068
 H        -3.194884         3.663794         0.095603
 H        -2.167398         4.376048         1.292618
 H        -1.572541         3.231827        -1.513975
 H        -0.142527         3.372426        -0.640152
 H        -2.332631         1.182543        -0.796474
 H        -1.508580        -0.541520         2.568806
 H        -2.499904        -0.841297         0.936914
