19
Iteration:  4017
 O         0.253031        -0.400855         0.504490
 C        -0.725673         0.592616         0.727308
 C        -0.399291         1.821812         1.590256
 C        -1.910683         2.086784         1.219455
 C        -2.167303         3.437873         0.637722
 C        -1.335643         3.009274        -0.669217
 C        -1.527576         1.381189        -0.224807
 O        -2.641980         1.093279         2.014682
 C        -1.852080        -0.040735         1.510997
 H         0.492588        -0.441864        -0.380658
 H        -0.177260         1.690003         2.629985
 H         0.375810         2.510091         1.363410
 H        -3.244814         3.641029         0.446423
 H        -1.834733         4.265549         1.199996
 H        -1.738934         3.253112        -1.606101
 H        -0.219698         3.270223        -0.686462
 H        -2.278566         0.893710        -0.849476
 H        -1.559974        -0.558658         2.520295
 H        -2.588713        -0.802707         0.926845
