19
Iteration:  3596
 O         0.260801        -0.387996         0.315027
 C        -0.614519         0.553184         0.786531
 C        -0.488301         1.828432         1.719636
 C        -1.903386         2.062771         1.170424
 C        -2.197527         3.413473         0.552784
 C        -1.331847         2.963219        -0.653718
 C        -1.513781         1.530863        -0.157718
 O        -2.594758         1.119891         1.976160
 C        -1.892652        -0.062539         1.565786
 H         0.004275        -1.139560         0.843083
 H        -0.252131         1.408295         2.713837
 H         0.332630         2.505374         1.254018
 H        -3.253418         3.561694         0.240746
 H        -1.951097         4.475082         1.153181
 H        -1.838001         3.447472        -1.509741
 H        -0.165907         3.226114        -0.519346
 H        -2.186681         0.879576        -0.615132
 H        -1.619117        -0.661144         2.528489
 H        -2.434567        -0.615981         0.806003
