19
Iteration:  1219
 O         0.261885        -0.342156         0.193341
 C        -0.661471         0.543834         0.743417
 C        -0.383322         1.740499         1.735065
 C        -1.802427         2.083043         1.193146
 C        -2.222297         3.409303         0.564542
 C        -1.326357         2.967493        -0.564174
 C        -1.417117         1.429978        -0.162417
 O        -2.743594         1.203792         1.931823
 C        -1.935911        -0.051150         1.661110
 H         0.646707        -0.910603         0.797007
 H        -0.432508         1.445350         2.781663
 H         0.320157         2.442451         1.459986
 H        -3.319611         3.242112         0.320170
 H        -2.000457         4.416271         1.082412
 H        -1.707227         3.252247        -1.689826
 H        -0.388162         3.434606        -0.512449
 H        -2.142698         0.935085        -0.759655
 H        -1.720888        -0.358313         2.700199
 H        -2.575130        -0.888816         1.123102
