19
Iteration:  1298charge 0 multiplicity 1
 O         0.332588        -0.321754         0.279762
 C        -0.652816         0.599354         0.742034
 C        -0.464709         1.712650         1.755156
 C        -1.791121         2.056295         1.212296
 C        -2.085556         3.408358         0.657151
 C        -1.422635         2.923857        -0.612291
 C        -1.524563         1.378131        -0.213456
 O        -2.716017         1.199654         1.869252
 C        -1.953230         0.003736         1.587248
 H         0.962496        -0.738002         0.841074
 H        -0.442073         1.455169         2.741087
 H         0.390669         2.472069         1.579055
 H        -3.119246         3.483993         0.482746
 H        -1.773301         4.340437         1.143619
 H        -2.031611         3.202320        -1.506004
 H        -0.370088         3.282479        -0.583672
 H        -2.308692         0.791641        -0.739708
 H        -1.672178        -0.536975         2.517124
 H        -2.779324        -0.516902         0.955755
