19
Iteration:  3347
 O         0.317638        -0.351694         0.423073
 C        -0.742665         0.544374         0.776218
 C        -0.469277         1.796352         1.665535
 C        -1.909290         2.089397         1.227256
 C        -2.137552         3.437693         0.621965
 C        -1.263081         2.903281        -0.552922
 C        -1.514750         1.458042        -0.217068
 O        -2.693158         1.152454         1.932844
 C        -1.890501        -0.066167         1.509739
 H         0.193744        -0.544970        -0.443998
 H        -0.212184         1.711837         2.764031
 H         0.367492         2.403463         1.275944
 H        -3.200849         3.409961         0.070699
 H        -1.916508         4.312658         1.263258
 H        -1.600260         3.050116        -1.508253
 H        -0.191880         3.347695        -0.489941
 H        -2.244765         1.030383        -1.007030
 H        -1.453193        -0.469753         2.370008
 H        -2.623353        -0.751028         1.012912
