19
Iteration:  4448
 O         0.284266        -0.363708         0.257213
 C        -0.703830         0.552791         0.818147
 C        -0.342539         1.768831         1.616022
 C        -1.929709         2.084006         1.281618
 C        -2.161245         3.401517         0.552825
 C        -1.349435         2.871313        -0.707544
 C        -1.597319         1.449551        -0.105272
 O        -2.717834         1.199107         2.029075
 C        -1.852068         0.004034         1.622671
 H         1.106647        -0.314010         0.873984
 H        -0.209840         1.634365         2.664445
 H         0.314509         2.446768         1.054909
 H        -3.221443         3.526958         0.212360
 H        -1.689684         4.488842         0.914021
 H        -1.780055         2.916531        -1.683365
 H        -0.252018         3.137588        -0.725090
 H        -2.284338         0.842024        -0.761561
 H        -1.462494        -0.625243         2.357399
 H        -2.374078        -0.734748         0.936839
