19
Iteration:  3038charge 0 multiplicity 1
 O         0.243466        -0.463234         0.355380
 C        -0.681084         0.514342         0.704030
 C        -0.451114         1.771956         1.702388
 C        -1.900763         2.026206         1.148845
 C        -2.304409         3.440668         0.613697
 C        -1.194252         2.975161        -0.502714
 C        -1.472148         1.468541        -0.192093
 O        -2.679507         1.168352         1.930080
 C        -1.881985         0.030812         1.582434
 H         1.079652        -0.067926        -0.099189
 H        -0.391568         1.524064         2.782976
 H         0.305644         2.583274         1.436319
 H        -3.363304         3.398989         0.153632
 H        -1.947621         4.366515         1.192923
 H        -1.644458         3.207146        -1.510138
 H        -0.187938         3.348565        -0.361043
 H        -2.285704         0.983701        -0.849114
 H        -1.463022        -0.424311         2.501688
 H        -2.515637        -0.672614         0.869776
