19
Iteration:  1865
 O         0.279800        -0.403125         0.443847
 C        -0.712841         0.617003         0.664315
 C        -0.517799         1.740393         1.638152
 C        -1.941699         2.070537         1.244400
 C        -2.194518         3.509383         0.591792
 C        -1.174169         3.007284        -0.511885
 C        -1.467355         1.465549        -0.288609
 O        -2.665341         1.076853         2.031789
 C        -1.906507        -0.104082         1.522276
 H         0.214236        -0.497411        -0.618149
 H        -0.437109         1.493678         2.760490
 H         0.031301         2.647064         1.569096
 H        -3.195357         3.586790         0.126923
 H        -1.671849         4.363666         1.234087
 H        -1.566738         3.371101        -1.560474
 H        -0.154742         3.221702        -0.365383
 H        -2.143936         0.879240        -0.904929
 H        -1.437034        -0.702742         2.379455
 H        -2.507221        -0.551423         0.815246
