19
Iteration:  2007charge 0 multiplicity 1
 O         0.291476        -0.428633         0.302582
 C        -0.672983         0.484668         0.806857
 C        -0.406263         1.701584         1.798200
 C        -1.833107         2.061283         1.199697
 C        -2.241132         3.472711         0.584848
 C        -1.339646         3.097012        -0.647241
 C        -1.407885         1.510032        -0.141663
 O        -2.663662         1.142840         1.817480
 C        -2.040331        -0.139852         1.628844
 H         1.037043         0.271303        -0.000798
 H        -0.208475         1.562291         2.922208
 H         0.345290         2.378286         1.513545
 H        -3.280776         3.509871         0.338141
 H        -1.788153         4.333630         1.180309
 H        -1.914879         3.184463        -1.642855
 H        -0.335547         3.464551        -0.602831
 H        -2.270058         1.137679        -0.731615
 H        -1.752462        -0.524722         2.721411
 H        -2.597108        -0.734633         0.984784
