19
Iteration:  3667charge 0 multiplicity 1
 O         0.273376        -0.400147         0.394410
 C        -0.673811         0.552414         0.794256
 C        -0.484261         1.739795         1.657386
 C        -1.919660         2.088922         1.227001
 C        -2.142117         3.521180         0.579086
 C        -1.347675         2.953185        -0.625716
 C        -1.484123         1.397559        -0.201000
 O        -2.651930         1.150459         1.954137
 C        -1.842474        -0.077926         1.610621
 H         0.408783        -0.126304        -0.547839
 H        -0.270832         1.746764         2.737333
 H         0.038045         2.523398         1.190540
 H        -3.232629         3.738002         0.329183
 H        -1.778268         4.349736         1.073738
 H        -1.798871         3.146069        -1.622817
 H        -0.338649         3.323850        -0.613902
 H        -2.262933         0.778530        -0.796972
 H        -1.380244        -0.505515         2.494173
 H        -2.611207        -0.818234         1.051161
