19
Iteration:  1794
 O         0.293941        -0.351690         0.394255
 C        -0.609979         0.565954         0.751961
 C        -0.466745         1.724608         1.762612
 C        -1.892200         2.045122         1.230619
 C        -2.116810         3.472405         0.709701
 C        -1.326299         2.967360        -0.653834
 C        -1.489160         1.483333        -0.205464
 O        -2.712277         1.146152         1.850637
 C        -1.896046        -0.043603         1.509504
 H        -0.062862        -0.913052        -0.417721
 H        -0.422242         1.266761         2.806381
 H         0.321152         2.534893         1.917524
 H        -3.217173         3.667650         0.372741
 H        -1.750253         4.290607         1.317709
 H        -1.880745         3.223834        -1.533803
 H        -0.234494         3.298225        -0.593846
 H        -2.285499         0.971164        -0.867249
 H        -1.780035        -0.599991         2.408023
 H        -2.437634        -0.761829         0.773958
