19
Iteration:  1286charge 0 multiplicity 1
 O         0.336181        -0.300862         0.306216
 C        -0.663197         0.520496         0.748257
 C        -0.399213         1.700856         1.688158
 C        -1.918579         2.056116         1.168651
 C        -2.150267         3.437338         0.663636
 C        -1.338590         2.944596        -0.605802
 C        -1.547695         1.446450        -0.160485
 O        -2.700709         1.241809         1.929849
 C        -1.914852        -0.088415         1.534605
 H         0.650962        -0.755302         1.209129
 H        -0.513176         1.547887         2.694946
 H         0.422398         2.410720         1.383160
 H        -3.184890         3.639740         0.406052
 H        -1.651148         4.271850         1.259243
 H        -1.875908         3.123543        -1.624032
 H        -0.362367         3.314486        -0.870002
 H        -2.378753         0.918501        -0.638277
 H        -1.602982        -0.621168         2.431517
 H        -2.497521        -0.840918         0.883303
