19
Iteration:   230
 O         0.210387        -0.376797         0.285659
 C        -0.603397         0.624251         0.781529
 C        -0.425135         1.794793         1.688465
 C        -1.863654         2.101218         1.305085
 C        -2.115397         3.449063         0.601878
 C        -1.323591         2.906083        -0.690651
 C        -1.512737         1.415387        -0.122740
 O        -2.783376         1.064249         1.956010
 C        -1.850650         0.051896         1.495502
 H         0.480257        -1.012047         1.090518
 H        -0.036433         1.641617         2.671382
 H         0.328328         2.567030         1.280589
 H        -3.204759         3.497584         0.504536
 H        -1.813583         4.403659         1.094959
 H        -1.882258         3.002368        -1.681511
 H        -0.379950         3.276454        -0.829085
 H        -2.214078         0.878070        -0.596354
 H        -1.576428        -0.443842         2.520540
 H        -2.219536        -0.653480         0.727803
