19
Iteration:  2566charge 0 multiplicity 1
 O         0.251407        -0.494956         0.482243
 C        -0.707543         0.524359         0.699216
 C        -0.445394         1.784519         1.639150
 C        -1.869240         2.070745         1.145582
 C        -2.170317         3.556247         0.621470
 C        -1.328689         3.113282        -0.612510
 C        -1.514945         1.554154        -0.233738
 O        -2.706546         0.975118         1.969695
 C        -1.882677        -0.079442         1.532223
 H         1.173547        -0.004604         0.730959
 H        -0.217487         1.534713         2.712608
 H         0.336240         2.401725         1.266295
 H        -3.187489         3.819867         0.276375
 H        -1.771170         4.265399         1.416560
 H        -1.507233         3.389371        -1.614851
 H        -0.200380         3.440202        -0.420162
 H        -2.230860         0.997957        -0.925091
 H        -1.521884        -0.733778         2.305216
 H        -2.590286        -0.821932         0.887397
