19
Iteration:  1992charge 0 multiplicity 1
 O         0.298545        -0.418647         0.353279
 C        -0.695790         0.532268         0.716050
 C        -0.421124         1.723737         1.778571
 C        -1.820860         2.108427         1.212360
 C        -2.216836         3.434994         0.676022
 C        -1.321323         2.966964        -0.572128
 C        -1.471058         1.479166        -0.224314
 O        -2.715220         1.169780         1.863363
 C        -1.941311        -0.026696         1.516191
 H         1.151718        -0.046928         0.307375
 H        -0.428108         1.453123         2.793469
 H         0.452093         2.317408         1.415289
 H        -3.267555         3.372958         0.321744
 H        -1.987519         4.279734         1.206786
 H        -1.709519         3.205581        -1.551438
 H        -0.365801         3.477505        -0.622183
 H        -2.273819         0.906654        -0.752859
 H        -1.513145        -0.520125         2.362447
 H        -2.749372        -0.823739         1.179459
