19
Iteration:  3956charge 0 multiplicity 1
 O         0.283916        -0.344395         0.319122
 C        -0.712768         0.580393         0.754310
 C        -0.367780         1.812748         1.661524
 C        -1.949830         2.083785         1.271292
 C        -2.202662         3.395316         0.545573
 C        -1.265950         2.907397        -0.546168
 C        -1.481162         1.501917        -0.173230
 O        -2.681085         1.142603         1.941130
 C        -1.850982        -0.056434         1.573941
 H        -0.151928        -1.240850         0.298850
 H        -0.239768         1.460215         2.762537
 H         0.236522         2.672664         1.305968
 H        -3.253897         3.376428         0.289116
 H        -1.885674         4.371645         1.141716
 H        -1.825853         3.055814        -1.615274
 H        -0.268817         3.403077        -0.689206
 H        -2.180548         0.904468        -0.855264
 H        -1.633261        -0.513657         2.523852
 H        -2.478637        -0.689502         0.990378
