19
Iteration:   437
 O         0.236421        -0.333653         0.259329
 C        -0.675346         0.542280         0.779316
 C        -0.345235         1.763854         1.656663
 C        -1.856954         2.077609         1.260337
 C        -2.198878         3.417587         0.581557
 C        -1.342713         2.912491        -0.585526
 C        -1.509918         1.459926        -0.103774
 O        -2.733935         1.188321         1.864245
 C        -1.860860        -0.068863         1.598072
 H         0.724771        -0.817283         1.047893
 H        -0.181318         1.575981         2.712032
 H         0.436370         2.540283         1.289518
 H        -3.224374         3.383922         0.247252
 H        -2.043291         4.392372         1.116896
 H        -1.597708         3.287992        -1.653927
 H        -0.330320         3.315127        -0.588471
 H        -2.364925         0.879747        -0.632319
 H        -1.631828        -0.407730         2.640244
 H        -2.367745        -0.813569         0.958594
