19
Iteration:  2595
 O         0.224675        -0.460936         0.449635
 C        -0.657603         0.541304         0.747819
 C        -0.411401         1.784175         1.678434
 C        -1.802559         2.054049         1.196345
 C        -2.192676         3.444731         0.715629
 C        -1.354081         3.008623        -0.579405
 C        -1.488545         1.515104        -0.205162
 O        -2.737692         1.164761         1.794278
 C        -1.873866        -0.066090         1.503189
 H         1.174354        -0.095580         0.350716
 H        -0.156488         1.542620         2.770415
 H         0.273655         2.508600         1.297174
 H        -3.182876         3.406741         0.408091
 H        -1.861982         4.242716         1.452741
 H        -1.945457         3.083420        -1.550753
 H        -0.317525         3.342872        -0.387474
 H        -2.161738         0.855622        -0.856456
 H        -1.768062        -0.671719         2.412218
 H        -2.497444        -0.593333         0.877503
