19
Iteration:    22
 O         0.278634        -0.359663         0.163027
 C        -0.682382         0.505536         0.879050
 C        -0.326909         1.856928         1.712654
 C        -1.786654         2.107625         1.304075
 C        -2.196957         3.392798         0.558977
 C        -1.275833         2.937243        -0.671242
 C        -1.469109         1.470427        -0.038304
 O        -2.793323         1.156948         1.846439
 C        -1.990426        -0.077411         1.642429
 H         0.615005        -0.976190         0.800109
 H         0.039816         1.941229         2.773638
 H         0.309983         2.472820         1.132209
 H        -3.207956         3.242319         0.154436
 H        -2.150796         4.397521         0.980221
 H        -1.773127         2.999694        -1.602937
 H        -0.285155         3.381516        -0.876341
 H        -2.299338         1.007137        -0.475033
 H        -1.833023        -0.482030         2.623979
 H        -2.457565        -0.788041         1.043663
