19
Iteration:  4772charge 0 multiplicity 1
 O         0.297031        -0.337911         0.265404
 C        -0.660809         0.529428         0.738916
 C        -0.363518         1.776402         1.649930
 C        -1.851683         2.032580         1.200616
 C        -2.279875         3.367434         0.531812
 C        -1.336692         2.953502        -0.708037
 C        -1.544936         1.426412        -0.135927
 O        -2.678075         1.263108         2.050124
 C        -1.892630        -0.012886         1.661516
 H         0.475260        -0.996724         1.103728
 H        -0.164428         1.526291         2.707414
 H         0.468009         2.188040         1.084871
 H        -3.435381         3.390327         0.476041
 H        -1.798648         4.348526         0.979831
 H        -1.664753         2.888842        -1.698293
 H        -0.377248         3.373434        -0.614264
 H        -2.273095         1.130180        -0.789933
 H        -1.468008        -0.521665         2.590080
 H        -2.519730        -0.728492         1.204307
