19
Iteration:  1140
 O         0.299467        -0.338810         0.294550
 C        -0.754252         0.502787         0.727078
 C        -0.413565         1.800008         1.583126
 C        -1.896286         2.090387         1.204896
 C        -2.149476         3.498904         0.641409
 C        -1.295957         2.973337        -0.553653
 C        -1.484858         1.425959        -0.207508
 O        -2.697332         1.110590         1.956285
 C        -1.918431        -0.119605         1.632679
 H         0.802077        -0.630603         1.067814
 H        -0.325335         1.774149         2.704931
 H         0.363981         2.445180         1.108829
 H        -3.275969         3.715266         0.370044
 H        -1.635945         4.389795         1.143878
 H        -1.788247         3.190515        -1.557806
 H        -0.269778         3.494334        -0.724276
 H        -2.242425         0.956931        -0.837378
 H        -1.645680        -0.642558         2.586943
 H        -2.680063        -0.837548         1.144778
