19
Iteration:   325
 O         0.222718        -0.437681         0.242065
 C        -0.669826         0.544075         0.786346
 C        -0.474845         1.842582         1.779488
 C        -1.861860         2.119846         1.235803
 C        -2.146745         3.468741         0.538194
 C        -1.345201         2.990248        -0.694006
 C        -1.461827         1.452101        -0.136324
 O        -2.652873         1.130736         1.934300
 C        -1.885034        -0.164967         1.612753
 H         0.853561        -0.596071         0.880253
 H        -0.131885         1.835498         2.950568
 H         0.200290         2.554702         1.424964
 H        -3.227726         3.683273         0.427313
 H        -1.722810         4.338081         1.036950
 H        -2.031717         3.069800        -1.583688
 H        -0.412126         3.702437        -0.819359
 H        -2.391115         0.905273        -0.690845
 H        -1.616268        -0.609385         2.533481
 H        -2.509214        -0.741924         0.907392
