19
Iteration:  2511
 O         0.300516        -0.336859         0.277454
 C        -0.657099         0.544778         0.810872
 C        -0.438518         1.765779         1.781936
 C        -1.900827         2.065781         1.275277
 C        -2.157766         3.410147         0.538636
 C        -1.277294         2.969080        -0.577968
 C        -1.418567         1.509904        -0.089777
 O        -2.780941         1.133288         1.851423
 C        -1.943508        -0.126544         1.576383
 H         0.273142         0.051050        -0.634366
 H        -0.177241         1.361343         2.831800
 H         0.319105         2.314297         1.368455
 H        -3.096254         3.693372         0.119230
 H        -1.814163         4.340718         1.137375
 H        -1.430755         3.211738        -1.567365
 H        -0.205762         3.355952        -0.488117
 H        -2.216693         0.915458        -0.660443
 H        -1.875678        -0.490298         2.563116
 H        -2.583515        -0.897969         0.850091
