19
Iteration:   326charge 0 multiplicity 1
 O         0.224635        -0.435152         0.243293
 C        -0.667075         0.544116         0.787536
 C        -0.466369         1.841936         1.770818
 C        -1.864611         2.117917         1.235325
 C        -2.154883         3.476263         0.541079
 C        -1.335895         2.993505        -0.700801
 C        -1.462454         1.453931        -0.140483
 O        -2.653922         1.127069         1.935965
 C        -1.896268        -0.166456         1.619368
 H         0.887970        -0.630303         0.905894
 H        -0.152957         1.786018         2.927123
 H         0.167448         2.546397         1.426083
 H        -3.222470         3.710582         0.432259
 H        -1.706250         4.348853         1.037297
 H        -2.065366         3.042168        -1.575747
 H        -0.443824         3.689445        -0.790818
 H        -2.347342         0.910410        -0.684001
 H        -1.574782        -0.624980         2.545151
 H        -2.518790        -0.721131         0.910026
