19
Iteration:  4857charge 0 multiplicity 1
 O         0.299271        -0.295415         0.242226
 C        -0.715043         0.513279         0.803348
 C        -0.430648         1.834512         1.625076
 C        -1.832758         2.026276         1.195516
 C        -2.112945         3.440915         0.587294
 C        -1.372236         2.876629        -0.654392
 C        -1.582531         1.386880        -0.143850
 O        -2.729193         1.202995         1.887212
 C        -1.845119        -0.022917         1.754831
 H         0.780285        -0.661102         0.915341
 H        -0.001498         1.481607         2.537996
 H         0.322819         2.390138         1.071564
 H        -3.181827         3.620060         0.417198
 H        -1.644937         4.229013         1.121072
 H        -1.887370         3.042140        -1.676020
 H        -0.321248         3.014866        -0.713293
 H        -2.515928         0.898123        -0.499863
 H        -1.508763        -0.180244         2.805085
 H        -2.486814        -0.750055         1.289832
