19
Iteration:    39charge 0 multiplicity 1
 O         0.210247        -0.334849         0.223564
 C        -0.637399         0.596196         0.821124
 C        -0.374776         1.719999         1.741661
 C        -1.873191         2.106417         1.221372
 C        -2.254793         3.448513         0.508812
 C        -1.337168         2.851090        -0.599536
 C        -1.446579         1.417079        -0.119681
 O        -2.700638         1.192928         1.895805
 C        -1.883916         0.003657         1.615674
 H         0.561951        -0.952991         0.790638
 H        -0.162868         1.499073         2.838627
 H         0.475132         2.421457         1.507650
 H        -3.350989         3.524500         0.379750
 H        -1.862063         4.359421         0.994714
 H        -1.470677         3.071381        -1.690762
 H        -0.317081         3.345658        -0.464200
 H        -2.204191         0.817623        -0.768556
 H        -1.555912        -0.548323         2.552610
 H        -2.593204        -0.708700         1.030858
