19
Iteration:  2095
 O         0.271167        -0.425397         0.335814
 C        -0.662103         0.595583         0.766805
 C        -0.366182         1.719499         1.749027
 C        -1.765174         2.080876         1.200001
 C        -2.180587         3.381486         0.658718
 C        -1.333130         3.027726        -0.603643
 C        -1.485715         1.476005        -0.165550
 O        -2.800225         1.153067         1.801988
 C        -1.976655        -0.068699         1.578953
 H         1.086055         0.146555        -0.013946
 H        -0.308082         1.507675         2.836566
 H         0.460104         2.420290         1.482200
 H        -3.213056         3.526206         0.547990
 H        -1.836401         4.347203         1.145976
 H        -1.756911         3.126488        -1.621855
 H        -0.249506         3.341131        -0.460215
 H        -2.361745         0.927797        -0.538972
 H        -1.650456        -0.520573         2.667789
 H        -2.492217        -0.752128         0.894140
