19
Iteration:  1656
 O         0.299562        -0.354405         0.391168
 C        -0.715641         0.551471         0.662115
 C        -0.470884         1.648304         1.628076
 C        -1.864387         2.029429         1.181210
 C        -2.193324         3.436038         0.672862
 C        -1.224232         3.049934        -0.528697
 C        -1.541339         1.446773        -0.256792
 O        -2.722017         1.202699         1.971651
 C        -1.934675        -0.086035         1.558088
 H         1.036336         0.155574         0.203192
 H        -0.390672         1.294085         2.605475
 H         0.404780         2.394513         1.351428
 H        -3.226836         3.572972         0.459840
 H        -1.727446         4.170010         1.293033
 H        -1.567403         3.414329        -1.447242
 H        -0.172646         3.335676        -0.389611
 H        -2.156277         0.980942        -0.952800
 H        -1.461322        -0.754984         2.391436
 H        -2.668340        -0.779870         1.040109
