19
Iteration:  4231charge 0 multiplicity 1
 O         0.344225        -0.327729         0.417021
 C        -0.677578         0.493505         0.753148
 C        -0.369661         1.757387         1.608171
 C        -1.848684         2.101346         1.223483
 C        -2.213465         3.404683         0.545207
 C        -1.348907         2.944388        -0.650461
 C        -1.537710         1.499246        -0.166813
 O        -2.667148         1.119977         1.974544
 C        -1.943388        -0.010921         1.651629
 H         0.068223        -1.115413        -0.018702
 H         0.062088         1.634411         2.630445
 H         0.258517         2.529259         1.108890
 H        -3.259936         3.470191         0.144726
 H        -2.007056         4.401546         1.068750
 H        -1.766069         3.063560        -1.668549
 H        -0.323983         3.405000        -0.604744
 H        -2.516984         1.114354        -0.687316
 H        -1.539005        -0.499979         2.541490
 H        -2.546161        -0.685147         1.017523
