19
Iteration:  3824
 O         0.315858        -0.382710         0.423839
 C        -0.685595         0.468785         0.752398
 C        -0.391378         1.788209         1.607537
 C        -1.872101         2.080776         1.204579
 C        -2.229707         3.396071         0.611351
 C        -1.334973         2.943631        -0.544312
 C        -1.546221         1.423302        -0.238650
 O        -2.674403         1.191651         1.947871
 C        -1.855712         0.026333         1.605051
 H         0.256356        -0.281336        -0.636767
 H        -0.288911         1.710276         2.738769
 H         0.483154         2.330545         1.164688
 H        -3.173913         3.501694         0.298345
 H        -1.996241         4.420534         1.039227
 H        -1.730922         3.132699        -1.569948
 H        -0.323686         3.254735        -0.224924
 H        -2.305795         0.875247        -0.828881
 H        -1.688061        -0.530223         2.565778
 H        -2.519380        -0.616263         0.901124
