19
Iteration:  4446charge 0 multiplicity 1
 O         0.302450        -0.369160         0.259481
 C        -0.708307         0.548578         0.801875
 C        -0.326644         1.766798         1.620575
 C        -1.932623         2.100100         1.277600
 C        -2.166602         3.405139         0.547566
 C        -1.339200         2.862355        -0.711443
 C        -1.587915         1.461165        -0.122077
 O        -2.729946         1.192472         2.034432
 C        -1.863443        -0.004673         1.635914
 H         1.019027        -0.323628         0.833202
 H        -0.177393         1.658877         2.664488
 H         0.337370         2.437500         1.055301
 H        -3.281927         3.542011         0.269846
 H        -1.725049         4.387568         0.944514
 H        -1.845267         3.008646        -1.707393
 H        -0.294113         3.120824        -0.674845
 H        -2.262613         0.866068        -0.713001
 H        -1.451214        -0.599606         2.394011
 H        -2.403955        -0.675725         0.995869
