19
Iteration:  4993
 O         0.284169        -0.307466         0.279090
 C        -0.723479         0.579682         0.760347
 C        -0.426722         1.912026         1.614301
 C        -1.878550         2.087166         1.196589
 C        -2.120057         3.446213         0.562795
 C        -1.266459         2.826689        -0.655527
 C        -1.598306         1.360216        -0.192397
 O        -2.685840         1.150276         2.085516
 C        -1.903525        -0.110477         1.635220
 H         0.474213        -0.798881         1.004915
 H        -0.227868         1.837163         2.700642
 H         0.211439         2.670504         1.086635
 H        -3.123927         3.761928         0.101166
 H        -1.586949         4.420728         1.031028
 H        -1.817434         3.052314        -1.540993
 H        -0.181721         3.137131        -0.878838
 H        -2.358953         0.697536        -0.538415
 H        -1.465312        -0.574124         2.607638
 H        -2.509545        -0.639067         0.899490
