19
Iteration:   126
 O         0.254310        -0.421913         0.255790
 C        -0.685137         0.510703         0.751051
 C        -0.381896         1.765031         1.821377
 C        -1.853354         2.110473         1.228866
 C        -2.143219         3.453266         0.519052
 C        -1.418839         2.992198        -0.713955
 C        -1.421272         1.458479        -0.136257
 O        -2.716138         1.138097         1.927277
 C        -1.907085        -0.022667         1.615460
 H         0.977700        -0.377991         0.892734
 H        -0.536038         1.533637         2.942969
 H         0.495097         2.445408         1.597113
 H        -3.239793         3.578248         0.413822
 H        -1.684743         4.289355         1.067764
 H        -2.117378         3.004405        -1.575715
 H        -0.430565         3.588895        -0.912563
 H        -2.306680         0.875555        -0.680110
 H        -1.401652        -0.532458         2.486007
 H        -2.653755        -0.807548         1.165467
