19
Iteration:  3819charge 0 multiplicity 1
 O         0.336345        -0.390062         0.395479
 C        -0.710058         0.519648         0.768353
 C        -0.388541         1.759016         1.626501
 C        -1.899264         2.094261         1.203320
 C        -2.254347         3.456549         0.649957
 C        -1.317786         2.927629        -0.590985
 C        -1.523619         1.364693        -0.227197
 O        -2.640073         1.215272         1.917570
 C        -1.875764        -0.015580         1.635261
 H         0.304628        -0.166421        -0.491439
 H        -0.393532         1.767828         2.686036
 H         0.479003         2.234361         1.197010
 H        -3.434457         3.537777         0.338703
 H        -1.944489         4.335090         1.190844
 H        -1.734468         3.161312        -1.559327
 H        -0.286042         3.206181        -0.388772
 H        -2.301712         0.870632        -0.876023
 H        -1.725540        -0.619696         2.510569
 H        -2.481146        -0.538499         0.969566
