19
Iteration:   577
 O         0.251298        -0.355314         0.306137
 C        -0.694996         0.525203         0.783242
 C        -0.415840         1.887402         1.649653
 C        -1.925418         2.099231         1.201185
 C        -2.192340         3.483923         0.573690
 C        -1.263079         2.936724        -0.582337
 C        -1.556581         1.464043        -0.134187
 O        -2.614618         1.095731         1.975177
 C        -1.932942        -0.127569         1.531099
 H         0.585767        -0.780235         1.127985
 H        -0.128668         1.936437         2.706099
 H         0.373192         2.454862         1.061950
 H        -3.212565         3.538565         0.206137
 H        -1.898487         4.367182         1.222501
 H        -1.505607         3.150094        -1.693310
 H        -0.272924         3.317808        -0.631109
 H        -2.341679         0.988003        -0.855977
 H        -1.433645        -0.825435         2.404312
 H        -2.596398        -0.951978         1.043090
