19
Iteration:  3313
 O         0.228336        -0.496575         0.370303
 C        -0.649019         0.506780         0.817395
 C        -0.394908         1.804230         1.730566
 C        -1.901490         2.150156         1.214748
 C        -2.215945         3.430412         0.545624
 C        -1.282579         2.986561        -0.618975
 C        -1.501706         1.526557        -0.192709
 O        -2.698628         1.123921         1.943136
 C        -1.877878        -0.081820         1.541594
 H         0.914883         0.036359        -0.047377
 H        -0.304898         1.662570         2.853493
 H         0.309353         2.433428         1.283148
 H        -3.336031         3.524460         0.131156
 H        -2.033049         4.369490         1.095574
 H        -1.595505         3.255041        -1.602657
 H        -0.236591         3.497765        -0.432904
 H        -2.288182         1.027801        -0.860243
 H        -1.474925        -0.627553         2.384961
 H        -2.566890        -0.831758         1.087173
