19
Iteration:   954charge 0 multiplicity 1
 O         0.292814        -0.313847         0.267726
 C        -0.741036         0.440382         0.693913
 C        -0.418269         1.692601         1.602541
 C        -1.870612         2.128730         1.163442
 C        -2.270668         3.480742         0.605470
 C        -1.191558         3.017130        -0.591660
 C        -1.568714         1.517187        -0.218056
 O        -2.696879         1.158577         2.061361
 C        -1.868686        -0.177079         1.676386
 H         0.909548        -0.687215         1.017594
 H        -0.449559         1.558659         2.683248
 H         0.463081         2.378190         1.304664
 H        -3.251082         3.488439         0.042795
 H        -2.114178         4.454557         1.148435
 H        -1.530447         3.220931        -1.573547
 H        -0.107287         3.580698        -0.635602
 H        -2.328964         1.007449        -0.834894
 H        -1.397900        -0.547639         2.671951
 H        -2.592972        -0.897612         1.084834
