19
Iteration:   317
 O         0.197203        -0.432652         0.233002
 C        -0.683181         0.528808         0.803057
 C        -0.458449         1.863483         1.816482
 C        -1.844738         2.101396         1.234977
 C        -2.123254         3.424362         0.556614
 C        -1.383279         2.972084        -0.659472
 C        -1.494381         1.455750        -0.118277
 O        -2.661971         1.145599         1.921841
 C        -1.828762        -0.082747         1.534048
 H         0.885285        -0.505976         0.883078
 H        -0.348650         1.940919         2.895163
 H         0.302349         2.436229         1.326122
 H        -3.183479         3.438844         0.306411
 H        -1.816324         4.342198         1.105233
 H        -1.783390         3.178711        -1.700558
 H        -0.413776         3.279160        -0.879531
 H        -2.326483         1.038671        -0.581760
 H        -1.717546        -0.599621         2.535220
 H        -2.386659        -0.848454         0.980978
