19
Iteration:  1874charge 0 multiplicity 1
 O         0.266893        -0.380195         0.399524
 C        -0.682468         0.575761         0.742918
 C        -0.477785         1.813957         1.707341
 C        -1.893326         2.083131         1.178756
 C        -2.167742         3.520031         0.610007
 C        -1.181415         3.037262        -0.585462
 C        -1.474338         1.449580        -0.252536
 O        -2.723533         1.031025         2.026939
 C        -1.939978        -0.141143         1.548690
 H         0.269789        -0.496313        -0.652463
 H        -0.441011         1.518300         2.719205
 H         0.343908         2.490718         1.333412
 H        -3.225146         3.578394         0.241239
 H        -1.898510         4.423223         1.264421
 H        -1.388479         3.254922        -1.648815
 H        -0.208479         3.456168        -0.436243
 H        -2.328059         1.092066        -0.874149
 H        -1.517307        -0.826535         2.324163
 H        -2.512365        -0.703237         0.882375
