19
Iteration:   769
 O         0.309735        -0.285216         0.333219
 C        -0.747988         0.527358         0.715107
 C        -0.390603         1.812354         1.527844
 C        -1.942014         2.060285         1.183637
 C        -2.161985         3.417369         0.637842
 C        -1.232755         3.001360        -0.604477
 C        -1.564660         1.458153        -0.102843
 O        -2.701311         1.128262         2.014714
 C        -1.904369        -0.177091         1.582532
 H         0.677312        -0.842054         1.089803
 H        -0.161647         1.750306         2.679230
 H         0.266994         2.539836         1.086725
 H        -3.249928         3.611865         0.387275
 H        -1.760825         4.255659         1.206121
 H        -1.567648         3.143524        -1.644156
 H        -0.084809         3.357388        -0.701807
 H        -2.406054         1.104999        -0.955209
 H        -1.584334        -0.615390         2.487518
 H        -2.550346        -0.724075         0.884165
