19
Iteration:  4928
 O         0.216886        -0.417470         0.314170
 C        -0.657837         0.574738         0.800514
 C        -0.279895         1.774946         1.630305
 C        -1.860234         2.117406         1.184584
 C        -2.334816         3.411850         0.563235
 C        -1.318262         2.912923        -0.684046
 C        -1.503275         1.384843        -0.150060
 O        -2.595869         1.238621         1.937015
 C        -1.919857        -0.048986         1.660714
 H         0.617284        -0.784092         1.088955
 H        -0.088411         1.747079         2.711794
 H         0.361844         2.474656         1.026744
 H        -3.410027         3.340847         0.210131
 H        -2.047971         4.341600         1.218843
 H        -1.863789         2.991385        -1.575588
 H        -0.416151         3.529741        -0.474202
 H        -2.479139         1.070296        -0.530172
 H        -1.539360        -0.462212         2.592791
 H        -2.591923        -0.652547         1.004366
