19
Iteration:    56charge 0 multiplicity 1
 O         0.252664        -0.385166         0.302834
 C        -0.720840         0.554888         0.693898
 C        -0.465695         1.801389         1.758103
 C        -1.917470         2.086422         1.158548
 C        -2.179726         3.393878         0.559757
 C        -1.217574         2.977673        -0.643305
 C        -1.578420         1.441089        -0.220981
 O        -2.612574         1.156373         2.029865
 C        -1.853153        -0.035536         1.596264
 H         0.530874        -0.769092         1.083531
 H        -0.623602         1.582385         2.761236
 H         0.399834         2.523501         1.570983
 H        -3.151691         3.438710         0.070913
 H        -2.012498         4.296278         1.162362
 H        -1.699429         3.232998        -1.609080
 H        -0.196907         3.167945        -0.573482
 H        -2.425140         1.069536        -0.773348
 H        -1.458682        -0.498488         2.470672
 H        -2.423647        -0.751488         1.042865
