19
Iteration:  4232
 O         0.346798        -0.319716         0.421058
 C        -0.675535         0.486510         0.760363
 C        -0.355351         1.762681         1.605020
 C        -1.848626         2.102507         1.220814
 C        -2.217144         3.399368         0.551716
 C        -1.347231         2.936687        -0.658650
 C        -1.535184         1.502483        -0.170884
 O        -2.671788         1.129509         1.968362
 C        -1.950814        -0.018369         1.653632
 H        -0.009391        -1.115620        -0.072210
 H         0.055407         1.615669         2.670500
 H         0.275527         2.522766         1.075675
 H        -3.347546         3.455036         0.165694
 H        -1.982075         4.369805         1.105947
 H        -1.777657         3.090213        -1.652930
 H        -0.298700         3.433694        -0.602823
 H        -2.500819         1.108635        -0.678864
 H        -1.534025        -0.551465         2.534175
 H        -2.531583        -0.677757         1.049438
