19
Iteration:  2274
 O         0.266024        -0.441141         0.422554
 C        -0.679648         0.474906         0.727563
 C        -0.416910         1.683086         1.671231
 C        -1.840497         2.114532         1.121988
 C        -2.199927         3.504284         0.619206
 C        -1.307322         3.119316        -0.517758
 C        -1.545775         1.503709        -0.245658
 O        -2.659734         1.114077         1.881006
 C        -1.935072        -0.112277         1.574756
 H         1.172001         0.042887         0.535498
 H        -0.457000         1.465150         2.752957
 H         0.344550         2.250450         1.320098
 H        -3.290557         3.460564         0.420380
 H        -1.883417         4.198077         1.295102
 H        -1.653615         3.304957        -1.556932
 H        -0.331974         3.526078        -0.454878
 H        -2.383360         1.205496        -0.820385
 H        -1.545165        -0.621897         2.598476
 H        -2.587902        -0.786937         0.994465
