19
Iteration:  3390charge 0 multiplicity 1
 O         0.392546        -0.310114         0.383845
 C        -0.719367         0.534291         0.722148
 C        -0.464490         1.696884         1.725103
 C        -1.897733         2.130060         1.196574
 C        -2.133190         3.490116         0.649202
 C        -1.302884         2.944648        -0.603910
 C        -1.538156         1.483536        -0.189882
 O        -2.736893         1.140250         1.873883
 C        -1.895212        -0.081691         1.570922
 H         0.262066        -1.268111         0.328800
 H        -0.480816         1.589883         2.836960
 H         0.351754         2.331225         1.326366
 H        -3.217582         3.549497         0.408459
 H        -1.590797         4.300781         1.050137
 H        -1.841352         3.216954        -1.452466
 H        -0.210342         3.248149        -0.869243
 H        -2.336058         0.863798        -0.695671
 H        -1.489732        -0.450884         2.464990
 H        -2.538745        -0.762768         0.997991
