19
Iteration:  2304charge 0 multiplicity 1
 O         0.181001        -0.471318         0.396435
 C        -0.623181         0.620659         0.729709
 C        -0.460042         1.792508         1.733365
 C        -1.860658         2.093700         1.260385
 C        -2.136777         3.469293         0.655280
 C        -1.351773         2.941359        -0.555263
 C        -1.416994         1.503823        -0.167155
 O        -2.752256         1.088937         1.863409
 C        -1.864069        -0.064201         1.424573
 H         1.024737        -0.275476         0.147471
 H        -0.169920         1.571874         2.813454
 H         0.167192         2.654520         1.320931
 H        -3.163538         3.667293         0.662494
 H        -1.755159         4.318656         1.334659
 H        -1.803276         2.971995        -1.572593
 H        -0.365043         3.551683        -0.800360
 H        -2.159114         0.982139        -0.760761
 H        -1.682466        -0.705531         2.324156
 H        -2.413767        -0.643453         0.765342
