19
Iteration:  1451charge 0 multiplicity 1
 O         0.306033        -0.348437         0.279725
 C        -0.741868         0.464837         0.743275
 C        -0.515876         1.795000         1.627611
 C        -1.924500         2.073166         1.149665
 C        -2.161797         3.472162         0.601215
 C        -1.238636         3.001807        -0.569056
 C        -1.533654         1.451967        -0.141994
 O        -2.639858         1.147422         1.980961
 C        -1.890649        -0.080549         1.615497
 H         0.725861        -0.829201         0.932415
 H        -0.285724         1.652754         2.624282
 H         0.210421         2.308888         0.901745
 H        -3.205565         3.527397         0.341707
 H        -1.845903         4.306256         1.440693
 H        -1.627920         3.344153        -1.488907
 H        -0.160621         3.325512        -0.618283
 H        -2.239436         0.971682        -0.790685
 H        -1.551587        -0.606227         2.479930
 H        -2.611498        -0.656386         1.050110
