19
Iteration:  4297
 O         0.180926        -0.412421         0.368899
 C        -0.721384         0.563291         0.819694
 C        -0.405184         1.815539         1.616162
 C        -1.874906         2.093334         1.189029
 C        -2.153673         3.526387         0.475607
 C        -1.347499         2.918150        -0.647417
 C        -1.604429         1.410887        -0.152104
 O        -2.643643         1.063411         1.998585
 C        -1.771951        -0.067537         1.618583
 H         1.121998         0.008912         0.607263
 H        -0.138598         1.802026         2.700845
 H         0.265948         2.576193         1.226697
 H        -3.138736         3.666941         0.230739
 H        -1.900051         4.422356         1.037367
 H        -1.800778         3.344753        -1.516384
 H        -0.257934         3.229091        -0.702561
 H        -2.488809         0.909229        -0.688126
 H        -1.293235        -0.524323         2.511516
 H        -2.440520        -0.714249         1.041367
