19
Iteration:  4608
 O         0.329802        -0.342044         0.290092
 C        -0.728817         0.506165         0.712745
 C        -0.434823         1.769429         1.572900
 C        -1.961265         2.089763         1.266694
 C        -2.166153         3.458968         0.573977
 C        -1.290848         2.848657        -0.699507
 C        -1.545080         1.481729        -0.178200
 O        -2.678826         1.175500         1.996120
 C        -1.832150         0.012613         1.729125
 H         0.484163        -1.096880         0.938724
 H        -0.260236         1.700639         2.634535
 H         0.288171         2.379997         0.969216
 H        -3.277669         3.475408         0.383928
 H        -1.976508         4.253954         1.208718
 H        -1.745743         2.974229        -1.723731
 H        -0.356880         3.250866        -0.565267
 H        -2.308192         1.155906        -0.820795
 H        -1.389497        -0.397963         2.717236
 H        -2.378430        -0.766642         1.302959
