19
Iteration:  2024charge 0 multiplicity 1
 O         0.249208        -0.421895         0.362711
 C        -0.664962         0.527709         0.838770
 C        -0.427255         1.737769         1.729098
 C        -1.877987         2.111707         1.236011
 C        -2.141356         3.456992         0.613357
 C        -1.269001         3.014149        -0.628794
 C        -1.471865         1.491631        -0.141347
 O        -2.798476         1.107357         1.886270
 C        -1.856012        -0.077736         1.516470
 H         0.825089        -0.025049        -0.438116
 H        -0.333634         1.575024         2.785585
 H         0.466282         2.326850         1.289200
 H        -3.263962         3.503461         0.433063
 H        -2.047848         4.404580         1.120965
 H        -1.773031         3.168665        -1.564750
 H        -0.291997         3.587142        -0.614566
 H        -2.284819         1.008349        -0.728084
 H        -1.575265        -0.609623         2.357543
 H        -2.450416        -0.791519         0.781281
