19
Iteration:  2686charge 0 multiplicity 1
 O         0.405052        -0.350888         0.368626
 C        -0.718794         0.506898         0.719707
 C        -0.491605         1.730764         1.736450
 C        -1.866507         2.069722         1.187465
 C        -2.136440         3.462305         0.661912
 C        -1.258981         3.056230        -0.598169
 C        -1.506610         1.478740        -0.152853
 O        -2.741316         1.139355         1.842703
 C        -1.964291        -0.093189         1.606451
 H         0.191184        -0.909802        -0.330004
 H        -0.387883         1.623382         2.779094
 H         0.217132         2.536153         1.344676
 H        -3.165521         3.380462         0.399110
 H        -1.865715         4.252016         1.324252
 H        -1.771566         3.144320        -1.494198
 H        -0.163203         3.296010        -0.607610
 H        -2.272209         1.160198        -0.926761
 H        -1.587771        -0.496878         2.452016
 H        -2.507383        -0.868272         1.110177
