19
Iteration:   127charge 0 multiplicity 1
 O         0.255167        -0.422180         0.256273
 C        -0.688855         0.515367         0.760952
 C        -0.375704         1.765146         1.814213
 C        -1.861374         2.106390         1.221176
 C        -2.148618         3.458869         0.523953
 C        -1.415567         2.993560        -0.717290
 C        -1.427584         1.459456        -0.130576
 O        -2.710567         1.138067         1.928150
 C        -1.906874        -0.027828         1.613538
 H         0.953050        -0.391423         0.853950
 H        -0.520541         1.534387         2.981558
 H         0.482952         2.405240         1.634110
 H        -3.249083         3.599224         0.376307
 H        -1.685329         4.302521         1.051188
 H        -2.082057         3.004047        -1.572345
 H        -0.418423         3.592500        -0.934719
 H        -2.283977         0.879627        -0.674949
 H        -1.389949        -0.542442         2.501554
 H        -2.642348        -0.822880         1.154860
