19
Iteration:  3024charge 0 multiplicity 1
 O         0.263197        -0.508295         0.415852
 C        -0.654498         0.570256         0.800686
 C        -0.385978         1.781131         1.696193
 C        -1.885454         2.121363         1.188570
 C        -2.207206         3.388348         0.613997
 C        -1.303666         3.063462        -0.562070
 C        -1.504756         1.459614        -0.182634
 O        -2.685889         1.164701         1.869882
 C        -1.896305        -0.082005         1.508914
 H         0.645669        -0.105891        -0.390834
 H        -0.366579         1.688786         2.778835
 H         0.399572         2.364798         1.379130
 H        -3.240047         3.415064         0.236963
 H        -2.294288         4.303843         1.374476
 H        -1.640569         3.316369        -1.637779
 H        -0.347771         3.423991        -0.405070
 H        -2.216539         1.016412        -0.777215
 H        -1.586679        -0.546002         2.501968
 H        -2.549295        -0.744280         0.968752
