19
Iteration:  1208
 O         0.294258        -0.329136         0.186789
 C        -0.662631         0.499893         0.841609
 C        -0.339257         1.752463         1.730103
 C        -1.870822         2.074079         1.240936
 C        -2.189965         3.355080         0.559498
 C        -1.277305         3.040453        -0.629098
 C        -1.513760         1.483962        -0.135813
 O        -2.751307         1.224691         1.876230
 C        -1.957788        -0.103819         1.683087
 H         0.709910        -0.923667         0.817610
 H        -0.076981         1.549640         2.789475
 H         0.464365         2.277094         1.377503
 H        -3.278414         3.356459         0.216838
 H        -2.039219         4.342443         1.149291
 H        -1.892843         3.038166        -1.714725
 H        -0.370571         3.540664        -0.675705
 H        -2.313883         1.038443        -0.676576
 H        -1.560835        -0.639382         2.569353
 H        -2.606505        -0.858990         1.010438
