19
Iteration:  3262charge 0 multiplicity 1
 O         0.311882        -0.430016         0.368385
 C        -0.659393         0.515450         0.706995
 C        -0.516458         1.773575         1.636748
 C        -1.915688         2.089145         1.162183
 C        -2.117151         3.480694         0.641853
 C        -1.326388         3.025923        -0.593414
 C        -1.538041         1.419585        -0.194305
 O        -2.685156         1.150115         1.943614
 C        -1.897647        -0.046748         1.589861
 H         1.114293        -0.311405         1.038942
 H        -0.254684         1.579640         2.700330
 H         0.233103         2.459692         1.198219
 H        -3.137073         3.684690         0.381658
 H        -1.885150         4.328698         1.263649
 H        -1.693312         2.962504        -1.602142
 H        -0.314949         3.379575        -0.606171
 H        -2.253997         0.961167        -0.900826
 H        -1.661678        -0.623311         2.454896
 H        -2.543872        -0.768406         1.039039
