19
Iteration:  2998charge 0 multiplicity 1
 O         0.302570        -0.423580         0.511788
 C        -0.717968         0.558423         0.743798
 C        -0.380373         1.707963         1.690264
 C        -1.857628         2.125024         1.245567
 C        -2.194272         3.488618         0.603708
 C        -1.348822         3.024772        -0.631219
 C        -1.451708         1.515200        -0.138561
 O        -2.699072         1.037569         1.874578
 C        -1.920061        -0.069887         1.455695
 H         0.290381        -0.581090        -0.416221
 H        -0.130692         1.687239         2.763536
 H         0.362542         2.536946         1.311544
 H        -3.225796         3.702107         0.383072
 H        -1.919807         4.279378         1.223506
 H        -1.821401         2.923313        -1.551967
 H        -0.319030         3.653767        -0.588333
 H        -2.339511         1.129101        -0.749227
 H        -1.532497        -0.469687         2.386677
 H        -2.583615        -0.625994         0.794194
