19
Iteration:  1636
 O         0.292676        -0.405385         0.254845
 C        -0.742226         0.504128         0.733300
 C        -0.426957         1.747473         1.704767
 C        -1.947528         2.078066         1.206429
 C        -2.162841         3.481125         0.638542
 C        -1.250446         3.021050        -0.557070
 C        -1.480759         1.523173        -0.178763
 O        -2.683025         1.085307         1.937447
 C        -1.960610        -0.055076         1.569264
 H         1.079704        -0.204933         0.863458
 H        -0.323940         1.572281         2.764166
 H         0.339054         2.383903         1.125819
 H        -3.072991         3.440212         0.217399
 H        -1.936401         4.327701         1.305073
 H        -1.543789         3.235316        -1.551327
 H        -0.223098         3.366895        -0.522514
 H        -2.268604         1.176560        -0.759881
 H        -1.592433        -0.689247         2.458443
 H        -2.576601        -0.822320         0.982506
