19
Iteration:  4623charge 0 multiplicity 1
 O         0.265960        -0.404698         0.283108
 C        -0.687662         0.581458         0.758011
 C        -0.427903         1.845098         1.637037
 C        -1.879111         2.066188         1.139359
 C        -2.193269         3.414551         0.547791
 C        -1.335513         3.000332        -0.625843
 C        -1.586445         1.380878        -0.208632
 O        -2.661717         1.154541         2.019392
 C        -1.814265        -0.035638         1.712556
 H         0.433093        -0.963328         0.980711
 H        -0.267033         1.612689         2.725322
 H         0.277433         2.570646         1.293696
 H        -3.149266         3.595889         0.137737
 H        -1.761005         4.317633         1.005081
 H        -1.740395         3.244792        -1.588068
 H        -0.155205         3.298653        -0.746210
 H        -2.372272         0.708514        -0.737251
 H        -1.330610        -0.312395         2.633488
 H        -2.530423        -0.835687         1.290451
