19
Iteration:  4218
 O         0.375106        -0.364771         0.390224
 C        -0.733246         0.567472         0.711130
 C        -0.428257         1.775366         1.623481
 C        -1.922461         2.096369         1.253239
 C        -2.204279         3.507196         0.504165
 C        -1.285843         2.951002        -0.634141
 C        -1.602949         1.450970        -0.139088
 O        -2.652540         1.146487         2.020069
 C        -1.817425        -0.061746         1.586274
 H        -0.042596        -1.317286         0.371958
 H        -0.374676         1.541152         2.668762
 H         0.290428         2.408937         1.116443
 H        -3.194483         3.381527         0.263680
 H        -1.962597         4.507736         0.958882
 H        -1.735848         3.209408        -1.639909
 H        -0.266727         3.183768        -0.642435
 H        -2.425590         0.872362        -0.710718
 H        -1.418211        -0.585977         2.440111
 H        -2.505950        -0.872465         1.115128
