19
Iteration:  3933charge 0 multiplicity 1
 O         0.341657        -0.317686         0.335919
 C        -0.690280         0.565998         0.742446
 C        -0.486682         1.773384         1.729256
 C        -1.892177         2.101627         1.127788
 C        -2.138697         3.528451         0.601192
 C        -1.293661         2.942168        -0.681680
 C        -1.600977         1.488891        -0.209903
 O        -2.659224         1.045372         2.006102
 C        -1.853645        -0.080657         1.590004
 H        -0.042052        -1.231938         0.602844
 H        -0.535009         1.691290         2.885872
 H         0.270353         2.432037         1.304534
 H        -3.229581         3.637026         0.465227
 H        -1.655813         4.395556         1.263000
 H        -1.565808         3.123659        -1.820817
 H        -0.177266         3.141806        -0.534119
 H        -2.511256         0.899521        -0.594054
 H        -1.535673        -0.560119         2.477613
 H        -2.473984        -0.738075         1.046491
