19
Iteration:  2844charge 0 multiplicity 1
 O         0.334783        -0.363372         0.543006
 C        -0.694221         0.581403         0.704809
 C        -0.387520         1.723457         1.701768
 C        -1.924634         2.019064         1.140563
 C        -2.125398         3.433807         0.681459
 C        -1.300000         3.008079        -0.586459
 C        -1.580131         1.519794        -0.247321
 O        -2.706491         1.132525         1.913548
 C        -1.929799        -0.074915         1.496874
 H         0.446646        -0.637055        -0.465909
 H        -0.174107         1.329385         2.761074
 H         0.347810         2.455145         1.379011
 H        -3.274388         3.515038         0.389307
 H        -1.662195         4.300349         1.247257
 H        -1.610116         3.357434        -1.598121
 H        -0.253817         3.391269        -0.546271
 H        -2.400466         1.189076        -0.915713
 H        -1.611817        -0.758510         2.253931
 H        -2.576045        -0.708644         0.862316
