19
Iteration:   979
 O         0.275281        -0.326182         0.293717
 C        -0.702131         0.565319         0.690183
 C        -0.365167         1.788083         1.663715
 C        -1.883060         2.081261         1.206471
 C        -2.181536         3.423806         0.603279
 C        -1.316321         2.917709        -0.535033
 C        -1.598426         1.475303        -0.204260
 O        -2.653333         1.121953         1.969170
 C        -1.935792        -0.046694         1.591244
 H         0.795587        -0.684858         1.024083
 H        -0.180891         1.593396         2.704239
 H         0.383559         2.502415         1.239701
 H        -3.147231         3.535843         0.191865
 H        -1.899101         4.260812         1.248467
 H        -1.448721         3.327155        -1.628969
 H        -0.254316         3.048617        -0.466805
 H        -2.389423         0.739239        -0.740419
 H        -1.523464        -0.536355         2.467342
 H        -2.518445        -0.704969         0.925029
