19
Iteration:  4945charge 0 multiplicity 1
 O         0.263442        -0.444967         0.330757
 C        -0.667289         0.473685         0.746245
 C        -0.356485         1.798489         1.600116
 C        -1.825042         2.131663         1.227242
 C        -2.220461         3.375419         0.561215
 C        -1.412328         2.990506        -0.650785
 C        -1.504962         1.485548        -0.172678
 O        -2.709847         1.198710         1.933129
 C        -1.861911         0.035613         1.705634
 H         0.631727        -1.064121         1.049081
 H        -0.064524         1.623893         2.643986
 H         0.430207         2.354349         1.117542
 H        -3.267550         3.162506         0.403201
 H        -2.123066         4.342047         0.994007
 H        -1.834338         3.122957        -1.691841
 H        -0.367872         3.239485        -0.730666
 H        -2.226824         0.922677        -0.809211
 H        -1.409354        -0.234134         2.713449
 H        -2.462071        -0.747644         1.242572
