19
Iteration:  1611charge 0 multiplicity 1
 O         0.202004        -0.353604         0.234766
 C        -0.674747         0.584042         0.806142
 C        -0.384158         1.796614         1.751028
 C        -1.915801         2.089685         1.282573
 C        -2.165471         3.469160         0.629211
 C        -1.297356         2.922753        -0.590192
 C        -1.493800         1.483357        -0.138605
 O        -2.710987         1.105432         1.876929
 C        -1.827507        -0.068097         1.466667
 H         0.265174        -1.073241         0.821200
 H        -0.289878         1.613401         2.815808
 H         0.357936         2.574043         1.376861
 H        -3.238434         3.478699         0.344975
 H        -1.759633         4.308051         1.131058
 H        -1.477433         3.171930        -1.643563
 H        -0.292801         3.297006        -0.359738
 H        -2.361696         1.058539        -0.662909
 H        -1.696339        -0.678432         2.470222
 H        -2.275365        -0.837826         0.791919
