19
Iteration:  1727
 O         0.324903        -0.337799         0.356849
 C        -0.705751         0.559585         0.707245
 C        -0.476668         1.683963         1.732279
 C        -1.852884         2.057054         1.201113
 C        -2.196256         3.433725         0.723293
 C        -1.282982         2.998092        -0.598885
 C        -1.449084         1.485441        -0.181638
 O        -2.719798         1.208839         1.846283
 C        -1.879562        -0.049614         1.532226
 H         0.088057        -1.051426        -0.162496
 H        -0.498237         1.233129         2.881945
 H         0.351122         2.329212         1.535151
 H        -3.278220         3.296766         0.429557
 H        -1.774323         4.218168         1.391030
 H        -1.552008         3.218263        -1.712775
 H        -0.293594         3.431759        -0.333799
 H        -2.336779         1.001458        -0.746998
 H        -1.652325        -0.602109         2.414300
 H        -2.628019        -0.753301         1.025138
