19
Iteration:   443charge 0 multiplicity 1
 O         0.269989        -0.342781         0.274224
 C        -0.664811         0.579313         0.760635
 C        -0.383095         1.721519         1.580718
 C        -1.850532         2.084527         1.222299
 C        -2.200148         3.447853         0.594409
 C        -1.317571         2.908240        -0.610524
 C        -1.505913         1.508915        -0.091901
 O        -2.737866         1.155491         1.904547
 C        -1.891669        -0.110296         1.642975
 H         0.619168        -0.705114         1.130948
 H        -0.214191         1.571259         2.717013
 H         0.309818         2.375221         1.211068
 H        -3.274650         3.443210         0.268955
 H        -1.989876         4.425090         0.996854
 H        -1.628017         3.158210        -1.570375
 H        -0.349836         3.417515        -0.339593
 H        -2.260350         0.988698        -0.671754
 H        -1.532190        -0.353948         2.635947
 H        -2.446650        -0.736563         0.931508
