19
Iteration:  2132
 O         0.203908        -0.459020         0.367043
 C        -0.688573         0.525651         0.765555
 C        -0.423971         1.800167         1.699307
 C        -1.877596         2.056868         1.240991
 C        -2.169172         3.501336         0.566400
 C        -1.293998         3.066508        -0.624025
 C        -1.438441         1.542560        -0.192560
 O        -2.728634         1.024847         1.995297
 C        -1.917106        -0.087483         1.499077
 H         1.191376        -0.160192         0.348756
 H        -0.484688         1.632416         2.776015
 H         0.348282         2.565754         1.412729
 H        -3.270407         3.637488         0.205282
 H        -1.693199         4.215675         1.250536
 H        -1.597147         3.318689        -1.602718
 H        -0.267147         3.472485        -0.633292
 H        -2.275593         1.199318        -0.760554
 H        -1.432557        -0.761962         2.244009
 H        -2.441481        -0.781384         0.870265
