19
Iteration:  3807charge 0 multiplicity 1
 O         0.318957        -0.377114         0.363277
 C        -0.695197         0.542017         0.815466
 C        -0.417294         1.790636         1.671364
 C        -1.868883         2.104670         1.112821
 C        -2.231721         3.476990         0.660625
 C        -1.299712         2.902727        -0.654628
 C        -1.510024         1.408598        -0.181075
 O        -2.634995         1.194847         1.961306
 C        -1.969094        -0.098666         1.615300
 H         0.759448        -0.162925        -0.581343
 H        -0.254195         1.491866         2.716967
 H         0.322087         2.462360         1.315212
 H        -3.426826         3.644241         0.395822
 H        -1.910086         4.253345         1.334366
 H        -1.800610         3.104066        -1.659993
 H        -0.332546         3.338565        -0.793004
 H        -2.268976         0.833539        -0.725413
 H        -1.508401        -0.506654         2.563053
 H        -2.633585        -0.798458         1.130318
