19
Iteration:  3333charge 0 multiplicity 1
 O         0.253909        -0.416852         0.424282
 C        -0.671109         0.609553         0.739045
 C        -0.464991         1.779062         1.667151
 C        -1.906478         2.039117         1.187804
 C        -2.242319         3.458256         0.575978
 C        -1.207834         2.983210        -0.594048
 C        -1.486433         1.418548        -0.187201
 O        -2.640144         1.132165         1.950769
 C        -1.907542        -0.039356         1.585524
 H         0.466129        -0.311271        -0.605508
 H        -0.456075         1.488191         2.740258
 H         0.238247         2.536074         1.465005
 H        -3.250145         3.667732         0.306674
 H        -1.990695         4.353445         1.109692
 H        -1.615674         3.375795        -1.544541
 H        -0.102333         3.255444        -0.487814
 H        -2.310670         0.897832        -0.641945
 H        -1.729372        -0.734058         2.432337
 H        -2.442651        -0.690346         0.902657
