19
Iteration:  3784
 O         0.266244        -0.418466         0.356725
 C        -0.740081         0.627736         0.806071
 C        -0.436138         1.775677         1.684250
 C        -1.905921         2.114318         1.324009
 C        -2.079427         3.449612         0.527580
 C        -1.348501         2.930475        -0.687341
 C        -1.573977         1.440399        -0.190262
 O        -2.705451         1.088711         1.954137
 C        -1.804411        -0.062249         1.602925
 H         1.009977        -0.041236         0.019381
 H        -0.271434         1.642304         2.801839
 H         0.225956         2.468957         1.230138
 H        -3.289727         3.636310         0.388588
 H        -1.671865         4.358274         1.024888
 H        -1.834499         3.283630        -1.695429
 H        -0.351751         3.282543        -0.845536
 H        -2.347907         0.887211        -0.708882
 H        -1.396172        -0.666513         2.504324
 H        -2.404125        -0.625850         0.868446
