19
Iteration:  3809charge 0 multiplicity 1
 O         0.330222        -0.381941         0.360291
 C        -0.708299         0.561526         0.822236
 C        -0.411993         1.770612         1.662470
 C        -1.879852         2.110987         1.127214
 C        -2.256142         3.489557         0.664897
 C        -1.304751         2.901863        -0.648393
 C        -1.504684         1.380904        -0.186122
 O        -2.625944         1.207159         1.944034
 C        -1.956408        -0.098643         1.628296
 H         0.674577        -0.190169        -0.536055
 H        -0.295876         1.550592         2.693904
 H         0.377642         2.422353         1.286335
 H        -3.401591         3.610100         0.424057
 H        -1.907319         4.228159         1.349256
 H        -1.703769         3.147141        -1.589495
 H        -0.296186         3.322288        -0.800777
 H        -2.302771         0.825000        -0.788256
 H        -1.566469        -0.535678         2.497156
 H        -2.594492        -0.717524         1.115297
