19
Iteration:  4413charge 0 multiplicity 1
 O         0.291500        -0.367196         0.298712
 C        -0.753514         0.485633         0.796720
 C        -0.418880         1.750273         1.558487
 C        -1.885496         2.098506         1.145763
 C        -2.199056         3.373039         0.590852
 C        -1.360248         2.958962        -0.633459
 C        -1.554525         1.436786        -0.197919
 O        -2.613895         1.224223         1.946857
 C        -1.827218        -0.023697         1.742912
 H         0.814563        -0.788948         1.115130
 H        -0.386215         1.833324         2.613067
 H         0.408782         2.370053         1.205322
 H        -3.356093         3.395042         0.447779
 H        -1.947474         4.314960         1.181494
 H        -1.893127         3.342418        -1.543915
 H        -0.363461         3.303771        -0.652496
 H        -2.164850         0.866254        -0.856708
 H        -1.434736        -0.427065         2.635720
 H        -2.546616        -0.607962         1.239920
