19
Iteration:  3975
 O         0.320401        -0.352828         0.345628
 C        -0.645827         0.492084         0.814916
 C        -0.355143         1.794424         1.630253
 C        -1.800007         2.094539         1.171768
 C        -2.296604         3.404752         0.622330
 C        -1.320189         3.029263        -0.649164
 C        -1.490946         1.416165        -0.127154
 O        -2.692844         1.156139         1.901221
 C        -1.974098        -0.045512         1.644559
 H        -0.203527        -1.167589        -0.088245
 H        -0.173157         1.685783         2.747133
 H         0.432061         2.353922         1.192572
 H        -3.357601         3.349877         0.232768
 H        -2.097788         4.355160         1.263571
 H        -1.398848         3.535701        -1.565680
 H        -0.282453         3.436513        -0.502544
 H        -2.424856         0.921301        -0.635995
 H        -1.455921        -0.505304         2.445616
 H        -2.496457        -0.776495         1.034740
