19
Iteration:  2748charge 0 multiplicity 1
 O         0.371275        -0.406741         0.447642
 C        -0.697026         0.548546         0.774653
 C        -0.442675         1.776128         1.652231
 C        -1.911871         2.050989         1.133649
 C        -2.210607         3.462168         0.648465
 C        -1.282582         3.058552        -0.541431
 C        -1.460736         1.485346        -0.247130
 O        -2.670401         1.101583         1.961197
 C        -1.999535        -0.056864         1.477597
 H         0.018684        -1.129859        -0.074816
 H        -0.287240         1.738406         2.770174
 H         0.237102         2.445273         1.164524
 H        -3.267747         3.620244         0.656263
 H        -1.818763         4.323742         1.349444
 H        -1.444962         3.329049        -1.589892
 H        -0.233247         3.461105        -0.426518
 H        -2.114045         0.905740        -0.867692
 H        -1.683411        -0.812772         2.379016
 H        -2.572333        -0.628407         0.688202
