19
Iteration:  4251charge 0 multiplicity 1
 O         0.320210        -0.372019         0.418396
 C        -0.697375         0.585331         0.815755
 C        -0.340600         1.788656         1.629328
 C        -1.839896         2.070178         1.154777
 C        -2.239077         3.403928         0.659534
 C        -1.405425         2.983725        -0.643129
 C        -1.520364         1.339327        -0.162559
 O        -2.663261         1.252250         1.912758
 C        -1.888383        -0.075433         1.609310
 H         0.276948        -0.763635        -0.545391
 H        -0.192499         1.807944         2.653384
 H         0.556398         2.240836         1.234918
 H        -3.190083         3.415342         0.450871
 H        -2.048565         4.402664         1.075720
 H        -1.770291         3.011730        -1.691126
 H        -0.402224         3.240197        -0.644678
 H        -2.261645         0.742915        -0.775371
 H        -1.723674        -0.332647         2.622331
 H        -2.593817        -0.724967         0.935237
