19
Iteration:  3715charge 0 multiplicity 1
 O         0.266105        -0.464786         0.352197
 C        -0.700640         0.536853         0.740833
 C        -0.341742         1.776432         1.667961
 C        -1.875900         2.113799         1.182100
 C        -2.303836         3.382848         0.550678
 C        -1.333473         2.954544        -0.572173
 C        -1.567583         1.482439        -0.170901
 O        -2.620509         1.159985         1.946080
 C        -1.903538         0.007306         1.618289
 H         1.065906        -0.081942         0.658971
 H        -0.030193         1.379805         2.673019
 H         0.604866         2.291008         1.240739
 H        -3.298429         3.427524         0.184480
 H        -1.866626         4.362327         1.079714
 H        -1.735800         3.247023        -1.558807
 H        -0.343595         3.556814        -0.559823
 H        -2.330000         1.143323        -0.856583
 H        -1.532242        -0.500580         2.582042
 H        -2.564063        -0.736635         0.944899
