19
Iteration:  2432
 O         0.372332        -0.362194         0.454555
 C        -0.716760         0.510070         0.713374
 C        -0.446234         1.734190         1.753206
 C        -1.808987         2.036069         1.212902
 C        -2.141470         3.444822         0.709304
 C        -1.342831         3.075406        -0.591208
 C        -1.508734         1.521668        -0.241499
 O        -2.677667         1.141650         1.809399
 C        -1.965824        -0.084527         1.454272
 H         0.097848        -1.350749         0.639106
 H        -0.311706         1.662240         2.822801
 H         0.287675         2.477850         1.285476
 H        -3.195025         3.494151         0.440991
 H        -1.672793         4.324519         1.243074
 H        -1.973443         3.232340        -1.362778
 H        -0.302133         3.420648        -0.482140
 H        -2.406256         1.013944        -0.776592
 H        -1.742602        -0.548745         2.380700
 H        -2.733041        -0.778104         0.819502
