19
Iteration:  3722
 O         0.286257        -0.446623         0.352294
 C        -0.691582         0.551002         0.747895
 C        -0.261184         1.696359         1.599957
 C        -1.928867         2.096923         1.159842
 C        -2.307888         3.408951         0.563787
 C        -1.321134         3.001148        -0.585593
 C        -1.516008         1.495039        -0.201923
 O        -2.656725         1.172497         1.981010
 C        -1.933756        -0.017195         1.660980
 H         1.040329        -0.066613         0.681914
 H        -0.279655         1.521824         2.679287
 H         0.524085         2.373580         1.325673
 H        -3.316778         3.467758         0.184707
 H        -1.951897         4.200581         1.152300
 H        -1.743011         3.159096        -1.549713
 H        -0.356448         3.510923        -0.575955
 H        -2.325007         0.977080        -0.821687
 H        -1.507670        -0.570747         2.454770
 H        -2.649082        -0.709675         1.157399
