19
Iteration:  2039
 O         0.234162        -0.422421         0.440596
 C        -0.695377         0.641377         0.683283
 C        -0.422121         1.820571         1.723282
 C        -1.910977         2.054848         1.253158
 C        -2.179160         3.449431         0.641180
 C        -1.242525         2.916956        -0.520827
 C        -1.529433         1.514121        -0.181670
 O        -2.661225         1.069178         1.871152
 C        -1.906538        -0.038427         1.470013
 H         0.609744        -0.281767        -0.414258
 H        -0.281691         1.498379         2.791462
 H         0.071555         2.669244         1.413665
 H        -3.091194         3.675870         0.150516
 H        -1.796553         4.271840         1.233112
 H        -1.512906         3.239130        -1.595122
 H        -0.207224         3.068129        -0.583904
 H        -2.290023         0.930224        -0.761559
 H        -1.569675        -0.677120         2.415528
 H        -2.484033        -0.783444         0.910108
