19
Iteration:  1287
 O         0.335273        -0.300590         0.306409
 C        -0.659708         0.529280         0.743580
 C        -0.403609         1.695724         1.692102
 C        -1.911826         2.051735         1.169457
 C        -2.144953         3.434821         0.664726
 C        -1.350655         2.943560        -0.601246
 C        -1.546284         1.441749        -0.162296
 O        -2.701185         1.245272         1.923090
 C        -1.915856        -0.081033         1.539455
 H         0.685354        -0.768949         1.179908
 H        -0.542517         1.551316         2.696953
 H         0.439948         2.432475         1.394146
 H        -3.148009         3.620399         0.412261
 H        -1.672203         4.260564         1.225990
 H        -1.875404         3.127057        -1.594924
 H        -0.326609         3.333697        -0.871172
 H        -2.391053         0.876392        -0.624316
 H        -1.593198        -0.631603         2.453564
 H        -2.541792        -0.832193         0.862497
