19
Iteration:  3278
 O         0.262263        -0.432150         0.383682
 C        -0.704000         0.572890         0.783394
 C        -0.333018         1.751486         1.654808
 C        -1.879134         2.036348         1.211221
 C        -2.229836         3.428049         0.628397
 C        -1.302029         2.972784        -0.642331
 C        -1.521921         1.456312        -0.236484
 O        -2.732180         1.172495         1.889457
 C        -1.897220        -0.056536         1.557898
 H         1.071114        -0.201094         0.887585
 H        -0.229773         1.603020         2.727510
 H         0.424220         2.479061         1.350172
 H        -3.309312         3.633604         0.390378
 H        -1.754983         4.268147         1.177662
 H        -1.764939         3.634018        -1.437069
 H        -0.237338         3.279428        -0.466327
 H        -2.368776         0.922919        -0.645100
 H        -1.411463        -0.389102         2.533450
 H        -2.516602        -0.751099         0.982983
