19
Iteration:  2842
 O         0.340016        -0.367537         0.529979
 C        -0.704834         0.600016         0.709373
 C        -0.394983         1.739104         1.711833
 C        -1.924386         2.028715         1.141426
 C        -2.117167         3.427038         0.675823
 C        -1.284281         3.009144        -0.583213
 C        -1.566531         1.519993        -0.254444
 O        -2.709062         1.126307         1.921682
 C        -1.927945        -0.102772         1.502388
 H         0.404148        -0.613368        -0.472658
 H        -0.153063         1.331608         2.754844
 H         0.310634         2.442694         1.394060
 H        -3.263705         3.591118         0.432475
 H        -1.708376         4.230240         1.181092
 H        -1.638879         3.357790        -1.625826
 H        -0.298729         3.387663        -0.567612
 H        -2.428848         1.154331        -0.951892
 H        -1.642386        -0.711096         2.311153
 H        -2.648625        -0.698382         0.851965
