19
Iteration:  2428
 O         0.352299        -0.369056         0.449213
 C        -0.685621         0.519459         0.713222
 C        -0.456749         1.722093         1.762896
 C        -1.811527         2.045325         1.203789
 C        -2.121927         3.426698         0.702183
 C        -1.351669         3.068763        -0.588417
 C        -1.520569         1.514043        -0.206507
 O        -2.688356         1.138186         1.818621
 C        -1.963082        -0.063501         1.427985
 H         0.094044        -1.223823         0.598884
 H        -0.323220         1.610604         2.832889
 H         0.373097         2.392755         1.387303
 H        -3.238427         3.589280         0.473738
 H        -1.736329         4.272557         1.180315
 H        -1.977839         3.229426        -1.603137
 H        -0.352973         3.471967        -0.525721
 H        -2.343103         1.113123        -0.766110
 H        -1.711593        -0.546441         2.454180
 H        -2.482177        -0.740015         0.859018
