19
Iteration:   824
 O         0.203129        -0.379325         0.219387
 C        -0.696753         0.580277         0.803896
 C        -0.388227         1.756092         1.768349
 C        -1.899909         2.111181         1.251463
 C        -2.196215         3.479234         0.533515
 C        -1.343709         3.013083        -0.673390
 C        -1.422529         1.506924        -0.139030
 O        -2.665348         1.043441         1.954696
 C        -1.865922        -0.043219         1.604398
 H         0.801523        -0.792798         0.811427
 H        -0.257168         1.461008         2.848067
 H         0.343665         2.521982         1.404189
 H        -3.249358         3.396242         0.177230
 H        -1.954583         4.440195         1.021238
 H        -1.990137         2.980722        -1.508992
 H        -0.237446         3.389587        -0.697237
 H        -2.257847         0.825721        -0.754364
 H        -1.621388        -0.615572         2.434190
 H        -2.439506        -0.804727         1.046401
