19
Iteration:   715charge 0 multiplicity 1
 O         0.246754        -0.362457         0.229353
 C        -0.648788         0.576011         0.802333
 C        -0.365103         1.763809         1.736206
 C        -1.819398         2.110084         1.284294
 C        -2.188888         3.388973         0.622650
 C        -1.349623         2.957923        -0.634506
 C        -1.471420         1.462876        -0.103165
 O        -2.738218         1.128672         1.857169
 C        -1.937580        -0.034942         1.579546
 H         0.866029        -0.901970         0.841725
 H        -0.099535         1.855051         2.902129
 H         0.156928         2.468644         1.112623
 H        -3.307574         3.381160         0.370815
 H        -1.963393         4.354996         1.097939
 H        -1.828807         3.161354        -1.623321
 H        -0.154057         3.199329        -0.864990
 H        -2.372699         1.040579        -0.770731
 H        -1.597868        -0.473278         2.575485
 H        -2.483911        -0.773101         0.884079
