19
Iteration:  4534
 O         0.218254        -0.430654         0.326828
 C        -0.681092         0.547318         0.831527
 C        -0.393507         1.809346         1.589687
 C        -1.840810         2.074156         1.191112
 C        -2.230404         3.405644         0.565785
 C        -1.405382         2.968671        -0.691536
 C        -1.520315         1.449370        -0.149967
 O        -2.632915         1.195564         1.974242
 C        -1.828506        -0.048200         1.658598
 H         0.777586        -0.690486         0.976262
 H        -0.222134         1.682087         2.650067
 H         0.263138         2.551780         1.094241
 H        -3.294638         3.624769         0.294560
 H        -1.773559         4.320287         0.965464
 H        -1.810880         3.239401        -1.709623
 H        -0.293024         3.199776        -0.532272
 H        -2.394236         0.930057        -0.612838
 H        -1.387920        -0.615178         2.487606
 H        -2.447736        -0.689416         0.988004
