19
Iteration:  4712charge 0 multiplicity 1
 O         0.286621        -0.346757         0.295438
 C        -0.690695         0.590805         0.734326
 C        -0.435558         1.849330         1.587998
 C        -1.910949         2.062533         1.218614
 C        -2.114897         3.460739         0.582776
 C        -1.293334         2.885831        -0.659488
 C        -1.631176         1.412702        -0.200199
 O        -2.687297         1.130387         2.060150
 C        -1.883163        -0.065730         1.704448
 H         0.887170        -0.574368         0.995403
 H        -0.160773         1.702987         2.631684
 H         0.328386         2.527890         1.213882
 H        -3.100864         3.619917         0.237818
 H        -1.706989         4.374644         0.927336
 H        -1.796376         2.997136        -1.666507
 H        -0.207943         3.143190        -0.929319
 H        -2.325812         0.882773        -0.943046
 H        -1.536166        -0.562465         2.594314
 H        -2.473985        -0.735480         0.993052
