19
Iteration:  1201charge 0 multiplicity 1
 O         0.304937        -0.327561         0.204760
 C        -0.697456         0.508635         0.862003
 C        -0.344957         1.714219         1.721163
 C        -1.879389         2.071788         1.260696
 C        -2.227620         3.407172         0.606846
 C        -1.254225         3.012305        -0.717811
 C        -1.516016         1.483882        -0.085346
 O        -2.728056         1.164091         1.869895
 C        -1.940340        -0.084186         1.633145
 H         0.672013        -0.828981         0.869509
 H        -0.060934         1.744548         2.755285
 H         0.477578         2.342651         1.151962
 H        -3.199050         3.486884         0.255394
 H        -2.079756         4.293900         1.128671
 H        -1.831025         3.128370        -1.589333
 H        -0.198406         3.376156        -0.709683
 H        -2.438453         1.151951        -0.661252
 H        -1.618299        -0.544342         2.585513
 H        -2.649605        -0.632771         1.007435
