19
Iteration:   262
 O         0.319323        -0.343863         0.290640
 C        -0.718908         0.452494         0.746869
 C        -0.511181         1.790344         1.609941
 C        -1.865873         2.110780         1.134166
 C        -2.222049         3.482983         0.646217
 C        -1.177294         3.022040        -0.641072
 C        -1.580569         1.419432        -0.209971
 O        -2.584692         1.138365         1.981992
 C        -1.943195        -0.089803         1.675321
 H         0.704557        -0.710745         1.026646
 H        -0.505758         1.585940         2.654973
 H         0.195771         2.365593         1.154134
 H        -3.279047         3.452026         0.345319
 H        -2.067621         4.319793         1.356521
 H        -1.702247         3.190545        -1.624670
 H        -0.207368         3.316899        -0.542755
 H        -2.412066         1.099757        -0.744143
 H        -1.647623        -0.522146         2.721167
 H        -2.613120        -0.799420         1.107673
