19
Iteration:  1489
 O         0.219219        -0.402639         0.247643
 C        -0.705984         0.565101         0.773887
 C        -0.396977         1.702174         1.745259
 C        -1.877473         2.074197         1.245440
 C        -2.153595         3.408090         0.625152
 C        -1.335233         2.996373        -0.654519
 C        -1.498737         1.467787        -0.131711
 O        -2.701355         1.170895         1.909982
 C        -1.874944         0.012623         1.542193
 H         1.043912        -0.273035         0.733917
 H        -0.063022         1.397672         2.816688
 H         0.244268         2.501504         1.446614
 H        -3.249856         3.377032         0.281660
 H        -1.958647         4.298909         1.123487
 H        -1.708727         3.119862        -1.744050
 H        -0.264086         3.281069        -0.562093
 H        -2.359232         0.950589        -0.685789
 H        -1.465262        -0.493750         2.534221
 H        -2.411801        -0.898694         1.140430
