19
Iteration:  1381
 O         0.297395        -0.350852         0.254998
 C        -0.667325         0.515450         0.783431
 C        -0.373081         1.723971         1.662928
 C        -1.857705         2.098587         1.221629
 C        -2.216000         3.465122         0.650441
 C        -1.298451         3.033323        -0.585192
 C        -1.500525         1.398379        -0.245902
 O        -2.697199         1.139510         1.936699
 C        -1.958842        -0.049800         1.646059
 H         0.544230        -0.865951         0.992854
 H        -0.334707         1.757908         2.855491
 H         0.322375         2.293161         1.070670
 H        -3.271169         3.522555         0.196249
 H        -1.915489         4.427093         1.108157
 H        -1.644019         3.318199        -1.654876
 H        -0.326082         3.440846        -0.618261
 H        -2.235919         0.890536        -0.868715
 H        -1.602789        -0.688921         2.508682
 H        -2.690347        -0.665843         1.100664
