19
Iteration:  1481
 O         0.221207        -0.374289         0.269559
 C        -0.663164         0.590092         0.700875
 C        -0.343729         1.715003         1.679246
 C        -1.877847         2.078451         1.224343
 C        -2.177236         3.371747         0.580590
 C        -1.293929         2.965134        -0.595038
 C        -1.547172         1.495140        -0.125350
 O        -2.728971         1.131942         1.897216
 C        -1.915153        -0.024698         1.631399
 H         0.920056        -0.208965         0.979800
 H         0.045920         1.291966         2.643478
 H         0.453734         2.571928         1.394648
 H        -3.242548         3.502891         0.449481
 H        -1.915667         4.246656         1.171551
 H        -1.618149         3.178082        -1.657309
 H        -0.305715         3.204120        -0.389328
 H        -2.350591         1.038406        -0.635780
 H        -1.486967        -0.387213         2.600022
 H        -2.580190        -0.585657         0.974775
