19
Iteration:  1440
 O         0.267641        -0.342706         0.277734
 C        -0.695604         0.553995         0.746418
 C        -0.496994         1.767431         1.673816
 C        -1.925823         2.040466         1.185632
 C        -2.161313         3.416546         0.599950
 C        -1.265373         3.004619        -0.642860
 C        -1.511263         1.470692        -0.216862
 O        -2.613716         1.122330         2.010962
 C        -1.915809        -0.078845         1.611002
 H         0.517148        -0.982750         1.021760
 H        -0.513729         1.708377         2.711544
 H         0.375965         2.537766         1.510512
 H        -3.133134         3.831184         0.359482
 H        -1.569221         4.282834         1.225186
 H        -1.769441         3.108999        -1.575840
 H        -0.258809         3.498086        -0.595975
 H        -2.300081         1.079552        -0.837686
 H        -1.586764        -0.675862         2.433480
 H        -2.574130        -0.694522         0.999524
