19
Iteration:  1876charge 0 multiplicity 1
 O         0.267568        -0.375986         0.386213
 C        -0.683848         0.561655         0.765257
 C        -0.463106         1.827985         1.709741
 C        -1.893861         2.084568         1.164762
 C        -2.158732         3.500695         0.607064
 C        -1.184457         3.037342        -0.591498
 C        -1.482044         1.460925        -0.233904
 O        -2.726721         1.025975         2.017350
 C        -1.943054        -0.131290         1.540859
 H         0.293026        -0.496816        -0.608599
 H        -0.415823         1.521844         2.810011
 H         0.355613         2.392069         1.323512
 H        -3.215641         3.628567         0.294288
 H        -1.964394         4.475313         1.277995
 H        -1.409959         3.260534        -1.711138
 H        -0.226004         3.460214        -0.441190
 H        -2.308292         1.137185        -0.860778
 H        -1.557967        -0.844772         2.347814
 H        -2.511075        -0.772400         0.934976
