19
Iteration:  2891
 O         0.289828        -0.415574         0.429570
 C        -0.625724         0.552300         0.809976
 C        -0.408894         1.731191         1.694284
 C        -1.889221         2.078362         1.165085
 C        -2.225130         3.395584         0.629513
 C        -1.297627         3.121652        -0.616789
 C        -1.417215         1.498630        -0.183985
 O        -2.724895         1.073461         1.916472
 C        -1.927079        -0.025839         1.513010
 H        -0.162160        -0.811996        -0.281010
 H        -0.358166         1.632925         2.757614
 H         0.394995         2.432545         1.257267
 H        -3.254315         3.453794         0.278540
 H        -1.854697         4.318227         1.360954
 H        -1.660169         3.431256        -1.559231
 H        -0.227185         3.508761        -0.675946
 H        -2.082442         0.971297        -0.780300
 H        -1.869433        -0.715590         2.434085
 H        -2.486296        -0.704015         0.906305
