19
Iteration:  4954
 O         0.273132        -0.457914         0.322947
 C        -0.651335         0.582629         0.719563
 C        -0.337862         1.818366         1.634292
 C        -1.861910         2.125057         1.216645
 C        -2.201409         3.466719         0.554611
 C        -1.374107         2.976750        -0.688964
 C        -1.518969         1.390310        -0.238772
 O        -2.708873         1.170967         1.947359
 C        -1.859731        -0.043435         1.757078
 H         0.449756        -1.047284         1.155707
 H        -0.218723         1.641039         2.712953
 H         0.471834         2.381659         1.204864
 H        -3.243717         3.341601         0.351847
 H        -1.998956         4.282898         1.102094
 H        -1.991620         3.110106        -1.670971
 H        -0.399136         3.429337        -0.545999
 H        -2.548989         1.104281        -0.718409
 H        -1.350888        -0.333676         2.655194
 H        -2.546733        -0.845602         1.328119
