19
Iteration:  3727
 O         0.278758        -0.422475         0.356751
 C        -0.691397         0.544138         0.733754
 C        -0.252501         1.657196         1.575471
 C        -1.946649         2.045056         1.155819
 C        -2.284625         3.437805         0.575465
 C        -1.323855         3.038175        -0.615755
 C        -1.478164         1.471957        -0.213020
 O        -2.683413         1.199351         2.008995
 C        -1.931271        -0.043253         1.660577
 H         1.232966        -0.103320         0.695413
 H        -0.401062         1.643171         2.673755
 H         0.455110         2.483151         1.252926
 H        -3.373484         3.526495         0.289143
 H        -2.136332         4.382237         1.292852
 H        -1.773108         3.107205        -1.649603
 H        -0.254403         3.406854        -0.513905
 H        -2.229415         0.925588        -0.736862
 H        -1.465667        -0.586643         2.567726
 H        -2.696220        -0.763468         1.167815
