19
Iteration:  1565charge 0 multiplicity 1
 O         0.368063        -0.342796         0.433353
 C        -0.678697         0.494524         0.717645
 C        -0.406766         1.671311         1.631116
 C        -1.893272         2.109226         1.171860
 C        -2.210360         3.469988         0.655330
 C        -1.283305         3.034203        -0.549045
 C        -1.577431         1.494415        -0.214973
 O        -2.672498         1.139109         1.923795
 C        -1.939295        -0.067924         1.573702
 H         0.148096        -0.819169        -0.393505
 H        -0.229393         1.569042         2.763506
 H         0.278994         2.196141         1.069929
 H        -3.344243         3.611508         0.350530
 H        -1.683211         4.203464         1.227408
 H        -1.547740         3.402354        -1.625450
 H        -0.224172         3.339957        -0.431947
 H        -2.455120         0.987095        -0.810183
 H        -1.511973        -0.637295         2.481380
 H        -2.702460        -0.791800         1.193679
