19
Iteration:    79charge 0 multiplicity 1
 O         0.277512        -0.374906         0.377511
 C        -0.738656         0.534087         0.780298
 C        -0.400167         1.794726         1.527423
 C        -1.952826         2.082463         1.196252
 C        -2.183189         3.531108         0.567563
 C        -1.255317         2.977339        -0.572879
 C        -1.531939         1.482208        -0.201639
 O        -2.662350         1.060973         2.018039
 C        -1.918594        -0.111060         1.599542
 H         0.808056        -0.639339         1.248813
 H        -0.045189         1.819653         2.484768
 H         0.316163         2.406438         0.809434
 H        -3.177582         3.777161         0.216677
 H        -1.700047         4.392687         1.058600
 H        -1.611100         3.110018        -1.645248
 H        -0.274322         3.335114        -0.453737
 H        -2.369350         1.058292        -0.830159
 H        -1.598941        -0.655750         2.461639
 H        -2.443180        -0.807365         0.926450
