19
Iteration:   892charge 0 multiplicity 1
 O         0.289695        -0.320265         0.281235
 C        -0.672676         0.532189         0.764317
 C        -0.416755         1.732483         1.693276
 C        -1.848444         2.070070         1.265665
 C        -2.157002         3.470788         0.547879
 C        -1.377850         3.004326        -0.668008
 C        -1.508112         1.483168        -0.122037
 O        -2.687652         1.072946         1.955501
 C        -1.916424        -0.046546         1.586164
 H         0.555380        -1.045448         0.984807
 H        -0.306684         1.579105         2.735175
 H         0.267834         2.581079         1.298004
 H        -3.182552         3.693120         0.463484
 H        -1.583403         4.230157         1.134375
 H        -1.941393         3.059886        -1.655252
 H        -0.383275         3.356918        -0.708260
 H        -2.369855         1.141720        -0.826336
 H        -1.541331        -0.581012         2.391888
 H        -2.396080        -0.747057         0.946227
