19
Iteration:  1666
 O         0.318656        -0.376769         0.435202
 C        -0.733460         0.548806         0.656404
 C        -0.412434         1.727131         1.678374
 C        -1.931865         2.075053         1.135684
 C        -2.086896         3.461358         0.713596
 C        -1.285189         3.021109        -0.505743
 C        -1.575324         1.441613        -0.219671
 O        -2.679768         1.129206         1.906748
 C        -1.953380        -0.074493         1.534291
 H         0.867872        -0.038075        -0.210836
 H        -0.423706         1.393811         2.642458
 H         0.456218         2.400016         1.297217
 H        -3.134339         3.471829         0.262823
 H        -1.986531         4.272972         1.417582
 H        -1.571657         3.359938        -1.461824
 H        -0.199416         3.240585        -0.472722
 H        -2.391458         1.016474        -0.779882
 H        -1.525732        -0.648254         2.447185
 H        -2.588883        -0.649967         0.837633
