19
Iteration:  3688charge 0 multiplicity 1
 O         0.173854        -0.467695         0.365338
 C        -0.650855         0.622257         0.795587
 C        -0.346083         1.879685         1.686230
 C        -1.866515         2.125955         1.194133
 C        -2.206434         3.419297         0.567258
 C        -1.297798         2.912312        -0.685817
 C        -1.531824         1.507672        -0.127068
 O        -2.691185         1.058683         1.985617
 C        -1.862346        -0.077540         1.585399
 H         0.936692        -0.085661        -0.028887
 H        -0.332237         1.624072         2.759340
 H         0.444092         2.517110         1.367390
 H        -3.263901         3.654645         0.214974
 H        -1.910161         4.257845         1.075645
 H        -1.871702         3.148874        -1.597363
 H        -0.330922         3.338317        -0.693439
 H        -2.354600         1.032359        -0.772565
 H        -1.447131        -0.678231         2.376984
 H        -2.470145        -0.680135         0.863059
