19
Iteration:  4725charge 0 multiplicity 1
 O         0.225345        -0.346331         0.267450
 C        -0.651109         0.598499         0.784030
 C        -0.371495         1.842194         1.621911
 C        -1.992577         2.054550         1.279284
 C        -2.120876         3.495728         0.536547
 C        -1.296569         2.824574        -0.768523
 C        -1.544553         1.422423        -0.151808
 O        -2.701457         1.067218         2.020811
 C        -1.851608         0.006077         1.647479
 H         0.787513        -0.672420         1.034256
 H        -0.147559         1.781256         2.673894
 H         0.093457         2.668902         1.042173
 H        -3.119950         3.925478         0.302989
 H        -1.676971         4.087178         1.387541
 H        -1.796343         3.257643        -1.717036
 H        -0.270734         3.074156        -0.682495
 H        -2.445411         0.900794        -0.525661
 H        -1.382178        -0.389766         2.557011
 H        -2.498594        -0.831070         1.283665
