19
Iteration:  3312
 O         0.228108        -0.494991         0.368458
 C        -0.653102         0.509584         0.815742
 C        -0.401851         1.796923         1.721176
 C        -1.896801         2.148033         1.226809
 C        -2.226895         3.433206         0.543887
 C        -1.272462         2.984350        -0.617207
 C        -1.493559         1.520674        -0.186222
 O        -2.695227         1.128315         1.934796
 C        -1.878208        -0.081289         1.537440
 H         0.895358         0.021455         0.025927
 H        -0.283896         1.665285         2.833277
 H         0.294579         2.445953         1.284770
 H        -3.304476         3.556871         0.151309
 H        -2.070873         4.374923         1.070980
 H        -1.665429         3.309984        -1.613750
 H        -0.225498         3.493933        -0.460621
 H        -2.290584         1.025628        -0.798106
 H        -1.474363        -0.659670         2.395306
 H        -2.544733        -0.845870         1.124548
