19
Iteration:  3778charge 0 multiplicity 1
 O         0.224568        -0.412985         0.361993
 C        -0.702702         0.631672         0.836458
 C        -0.431893         1.784484         1.698517
 C        -1.903376         2.158212         1.278660
 C        -2.127825         3.501087         0.569844
 C        -1.332001         2.885834        -0.709315
 C        -1.625436         1.442202        -0.199198
 O        -2.699754         1.087975         1.942340
 C        -1.776613        -0.087572         1.568409
 H         1.167415        -0.087396         0.199000
 H        -0.098426         1.448823         2.662721
 H         0.263444         2.522289         1.218539
 H        -3.116813         3.717031         0.410143
 H        -1.734697         4.386215         1.076539
 H        -1.815612         3.165806        -1.583190
 H        -0.242112         3.206045        -0.656441
 H        -2.335022         0.683080        -0.634037
 H        -1.380672        -0.600755         2.395836
 H        -2.332197        -0.766913         0.886565
