19
Iteration:  3098charge 0 multiplicity 1
 O         0.333811        -0.346685         0.316435
 C        -0.660496         0.534307         0.765504
 C        -0.404089         1.773276         1.763763
 C        -1.868460         2.016808         1.194027
 C        -2.117470         3.466978         0.632386
 C        -1.354998         2.929962        -0.625927
 C        -1.568512         1.396983        -0.182851
 O        -2.771709         1.174654         1.926394
 C        -1.932511        -0.037214         1.486493
 H         1.008928        -0.110667         0.924461
 H        -0.285473         1.606976         2.859946
 H         0.247894         2.535574         1.393804
 H        -3.087053         3.776317         0.493045
 H        -1.583245         4.289640         1.000733
 H        -1.733337         3.267402        -1.629243
 H        -0.249535         3.196539        -0.656145
 H        -2.260720         0.815078        -0.784900
 H        -1.637376        -0.530369         2.454435
 H        -2.556930        -0.802421         1.014741
