19
Iteration:  3460
 O         0.323553        -0.320846         0.445564
 C        -0.687477         0.529890         0.732267
 C        -0.378425         1.691174         1.727358
 C        -1.821852         2.044144         1.231068
 C        -2.252039         3.402619         0.589163
 C        -1.289437         3.008092        -0.604273
 C        -1.518000         1.491242        -0.243870
 O        -2.685047         1.176534         1.886144
 C        -1.927188        -0.051681         1.584586
 H        -0.136611        -0.986724        -0.239286
 H        -0.376442         1.419551         2.786600
 H         0.452808         2.337264         1.352622
 H        -3.287453         3.343227         0.067740
 H        -2.025381         4.288822         1.273557
 H        -1.601909         3.514037        -1.572131
 H        -0.347066         3.404107        -0.472443
 H        -2.328531         1.056647        -0.892734
 H        -1.427055        -0.471117         2.439726
 H        -2.654725        -0.711420         1.120120
