19
Iteration:  3452charge 0 multiplicity 1
 O         0.320957        -0.340123         0.442147
 C        -0.701573         0.558323         0.708651
 C        -0.366911         1.713325         1.713514
 C        -1.848619         2.070602         1.176152
 C        -2.260125         3.347463         0.592384
 C        -1.256655         3.008281        -0.598993
 C        -1.528967         1.553889        -0.236231
 O        -2.650221         1.141486         1.891965
 C        -1.955828        -0.049710         1.603279
 H        -0.064572        -1.141276        -0.075258
 H        -0.342841         1.436151         2.802760
 H         0.361339         2.415422         1.411645
 H        -3.314913         3.409651         0.411724
 H        -2.060324         4.365974         1.078932
 H        -1.644286         3.333621        -1.596798
 H        -0.227508         3.346033        -0.324266
 H        -2.247391         1.163046        -0.874646
 H        -1.537770        -0.562128         2.598674
 H        -2.638298        -0.742825         1.078538
