19
Iteration:  3059
 O         0.208113        -0.350218         0.313385
 C        -0.746581         0.551494         0.757710
 C        -0.414528         1.786824         1.703929
 C        -1.935858         2.060879         1.256066
 C        -2.135036         3.468859         0.510005
 C        -1.203346         3.020632        -0.593947
 C        -1.524181         1.463987        -0.207994
 O        -2.705371         1.078640         1.964486
 C        -1.903415        -0.124331         1.611666
 H         1.152800        -0.051769         0.441362
 H        -0.396594         1.698816         2.788051
 H         0.287792         2.524366         1.248187
 H        -3.210327         3.361516         0.097594
 H        -1.920365         4.307337         1.308462
 H        -1.320831         3.272736        -1.715361
 H        -0.210996         3.295483        -0.392147
 H        -2.259512         0.978927        -0.898470
 H        -1.412348        -0.538946         2.531464
 H        -2.423665        -0.978807         1.057361
