19
Iteration:  2214charge 0 multiplicity 1
 O         0.223418        -0.444177         0.292937
 C        -0.706268         0.563145         0.827688
 C        -0.531108         1.791847         1.866589
 C        -1.851809         2.110213         1.224079
 C        -2.165918         3.498417         0.589024
 C        -1.287457         2.966455        -0.634444
 C        -1.427880         1.463107        -0.138590
 O        -2.681146         1.073579         1.875403
 C        -1.888725        -0.068213         1.493097
 H         0.638989        -0.112596        -0.444693
 H        -0.426389         1.822811         2.964457
 H         0.462644         2.355152         1.524733
 H        -3.163988         3.856937         0.546069
 H        -1.870838         4.388784         1.276067
 H        -1.847889         2.944457        -1.599806
 H        -0.155211         3.414020        -0.624097
 H        -2.157889         1.022146        -0.909587
 H        -1.427131        -0.578459         2.299590
 H        -2.438861        -0.823248         0.908233
