19
Iteration:    27charge 0 multiplicity 1
 O         0.248371        -0.336014         0.172261
 C        -0.649652         0.489593         0.853215
 C        -0.308994         1.825336         1.727622
 C        -1.837179         2.148761         1.321017
 C        -2.212521         3.412328         0.558508
 C        -1.297314         2.927158        -0.687956
 C        -1.433463         1.442117        -0.029234
 O        -2.770232         1.173442         1.843310
 C        -1.973561        -0.065317         1.637446
 H         0.610999        -1.018765         0.826738
 H        -0.126394         1.731029         2.795037
 H         0.297598         2.534193         1.024690
 H        -3.267624         3.275179         0.276418
 H        -2.086010         4.447410         0.941124
 H        -1.795875         2.993675        -1.729593
 H        -0.242269         3.264083        -0.556259
 H        -2.233795         0.790389        -0.651210
 H        -1.766793        -0.429588         2.688455
 H        -2.503883        -0.871908         0.925295
