19
Iteration:  3167charge 0 multiplicity 1
 O         0.257945        -0.401048         0.295839
 C        -0.711271         0.626541         0.730709
 C        -0.391103         1.820178         1.718296
 C        -1.939626         2.091039         1.185518
 C        -2.249128         3.422922         0.579364
 C        -1.186267         2.931877        -0.562730
 C        -1.493730         1.444813        -0.175242
 O        -2.680963         1.142394         1.940791
 C        -1.875831        -0.054549         1.570625
 H         0.349687        -1.066791         0.963264
 H        -0.217899         1.663848         2.773420
 H         0.318559         2.530471         1.212874
 H        -3.311007         3.392640         0.221225
 H        -2.299503         4.374774         1.218547
 H        -1.659412         3.274956        -1.632711
 H        -0.213059         3.373777        -0.492697
 H        -2.226494         0.940554        -0.742794
 H        -1.337017        -0.659795         2.414463
 H        -2.486904        -0.809086         1.077044
