19
Iteration:  1027charge 0 multiplicity 1
 O         0.295230        -0.363611         0.271744
 C        -0.679666         0.542826         0.765760
 C        -0.380182         1.779947         1.770547
 C        -1.841145         2.104565         1.185401
 C        -2.149013         3.568860         0.616440
 C        -1.424586         2.992964        -0.675534
 C        -1.537368         1.420445        -0.189158
 O        -2.669356         1.122950         1.878858
 C        -1.902824        -0.116675         1.630621
 H         0.572903        -1.043686         1.029844
 H        -0.453038         1.413780         2.837371
 H         0.507421         2.396269         1.595211
 H        -3.295590         3.527120         0.615177
 H        -1.634100         4.396327         1.122682
 H        -1.913393         3.140879        -1.617216
 H        -0.405879         3.465167        -0.845750
 H        -2.412219         0.899593        -0.636401
 H        -1.592101        -0.718546         2.522149
 H        -2.424842        -0.867649         1.069492
