19
Iteration:  3786
 O         0.272084        -0.420109         0.361118
 C        -0.737218         0.615387         0.777500
 C        -0.435475         1.780304         1.689362
 C        -1.904905         2.090978         1.326240
 C        -2.072485         3.439721         0.523969
 C        -1.360276         2.946943        -0.686665
 C        -1.550365         1.443921        -0.178589
 O        -2.704658         1.090504         1.961427
 C        -1.826207        -0.060363         1.615467
 H         0.994303         0.047112        -0.075145
 H        -0.338883         1.730501         2.766420
 H         0.242101         2.466759         1.251960
 H        -3.260785         3.592497         0.358009
 H        -1.669291         4.303099         0.985362
 H        -1.804155         3.250587        -1.640283
 H        -0.375295         3.297982        -0.894253
 H        -2.383827         0.968880        -0.758053
 H        -1.465561        -0.621979         2.456331
 H        -2.393616        -0.584881         0.951342
