19
Iteration:  4502
 O         0.278591        -0.417821         0.318968
 C        -0.707897         0.550821         0.747694
 C        -0.370960         1.735406         1.520060
 C        -1.898329         2.105690         1.188047
 C        -2.220398         3.409839         0.566680
 C        -1.352865         2.912704        -0.577196
 C        -1.542673         1.440850        -0.176319
 O        -2.672735         1.204889         1.962880
 C        -1.868149        -0.016068         1.748521
 H         1.080259        -0.373179         1.036048
 H        -0.135197         1.581209         2.549097
 H         0.337968         2.526839         1.221776
 H        -3.226434         3.526578         0.093174
 H        -1.971021         4.457687         1.125996
 H        -1.857146         3.353853        -1.432058
 H        -0.284447         3.167521        -0.877535
 H        -2.396001         0.958901        -0.726641
 H        -1.273731        -0.444504         2.493819
 H        -2.453414        -0.754438         1.157385
