19
Iteration:   712charge 0 multiplicity 1
 O         0.241364        -0.347393         0.220509
 C        -0.660809         0.542281         0.820741
 C        -0.358654         1.776909         1.709202
 C        -1.808572         2.103877         1.274511
 C        -2.183822         3.409383         0.619506
 C        -1.345479         2.976133        -0.625126
 C        -1.461658         1.450728        -0.086619
 O        -2.720983         1.115950         1.843147
 C        -1.966718        -0.030090         1.598498
 H         0.846392        -0.846819         0.876778
 H        -0.124096         1.856394         2.804734
 H         0.178897         2.542406         1.195189
 H        -3.295494         3.272323         0.407026
 H        -2.005475         4.402152         0.980746
 H        -1.863739         3.104430        -1.533750
 H        -0.202786         3.190060        -0.781102
 H        -2.344430         1.034254        -0.778760
 H        -1.677192        -0.532296         2.477689
 H        -2.426443        -0.800768         0.961850
