19
Iteration:  4310charge 0 multiplicity 1
 O         0.270040        -0.386452         0.325589
 C        -0.721296         0.590099         0.733554
 C        -0.413075         1.851714         1.580010
 C        -1.913417         2.122403         1.205995
 C        -2.204248         3.450109         0.606211
 C        -1.314163         2.848163        -0.625309
 C        -1.601906         1.445019        -0.172900
 O        -2.605699         1.138405         1.955293
 C        -1.883185        -0.053249         1.684683
 H         1.058144        -0.299394         0.755885
 H        -0.303536         1.593923         2.708941
 H         0.400965         2.402164         1.059132
 H        -3.277615         3.568756         0.263975
 H        -1.727270         4.314286         0.988670
 H        -1.606706         2.830777        -1.664990
 H        -0.180906         3.165317        -0.560129
 H        -2.509519         0.971723        -0.634075
 H        -1.524902        -0.548547         2.634106
 H        -2.363505        -0.811683         1.167390
