19
Iteration:  3924charge 0 multiplicity 1
 O         0.368975        -0.287992         0.356968
 C        -0.776036         0.515144         0.782886
 C        -0.459879         1.797812         1.646865
 C        -1.910182         2.099156         1.196276
 C        -2.138444         3.511911         0.578680
 C        -1.328635         2.903007        -0.655649
 C        -1.590524         1.525103        -0.209768
 O        -2.619174         1.071926         1.945752
 C        -1.909320        -0.141044         1.621015
 H         0.225527        -1.280225         0.609964
 H        -0.326706         1.582185         2.785752
 H         0.264398         2.599402         1.450117
 H        -3.137999         3.833506         0.610490
 H        -1.476226         4.272228         1.122568
 H        -1.446569         3.326708        -1.781597
 H        -0.297447         3.248659        -0.562090
 H        -2.422968         1.144946        -0.841920
 H        -1.523919        -0.637780         2.571103
 H        -2.513876        -0.895517         1.026771
