19
Iteration:  4422
 O         0.292252        -0.354939         0.293880
 C        -0.665885         0.517897         0.738833
 C        -0.389954         1.774820         1.569445
 C        -1.833829         2.050182         1.161913
 C        -2.207338         3.444384         0.606349
 C        -1.364363         2.999915        -0.627580
 C        -1.585289         1.385395        -0.192029
 O        -2.597745         1.214026         1.938318
 C        -1.973539        -0.059939         1.780920
 H         0.934585        -0.589819         1.114693
 H        -0.372427         1.564246         2.664702
 H         0.306061         2.511793         1.188707
 H        -3.289689         3.448947         0.235250
 H        -1.940077         4.347262         0.973974
 H        -1.861734         2.981275        -1.673153
 H        -0.350025         3.277537        -0.573405
 H        -2.358566         0.880188        -0.720661
 H        -1.424694        -0.445817         2.663510
 H        -2.527628        -0.801491         1.312912
