19
Iteration:  3507charge 0 multiplicity 1
 O         0.252418        -0.349814         0.429327
 C        -0.701176         0.564884         0.767759
 C        -0.467498         1.830637         1.693420
 C        -1.904970         2.081173         1.171783
 C        -2.094271         3.481748         0.624088
 C        -1.274162         2.937740        -0.619304
 C        -1.551672         1.385356        -0.176659
 O        -2.723257         1.075978         1.959737
 C        -1.854761        -0.090447         1.513749
 H         0.592087         0.031042        -0.358164
 H        -0.297208         1.645781         2.792564
 H         0.232198         2.525840         1.249336
 H        -3.135269         3.646491         0.401767
 H        -1.520141         4.362566         1.139989
 H        -1.753639         3.330264        -1.514233
 H        -0.162557         3.253959        -0.750378
 H        -2.283300         0.951093        -0.806623
 H        -1.580124        -0.690587         2.485416
 H        -2.397456        -0.707053         0.807770
