19
Iteration:   973charge 0 multiplicity 1
 O         0.310053        -0.327761         0.281840
 C        -0.753486         0.541723         0.700031
 C        -0.450273         1.748202         1.628943
 C        -1.910940         2.079908         1.204521
 C        -2.185693         3.416491         0.578218
 C        -1.289266         2.948055        -0.540441
 C        -1.598207         1.460416        -0.166966
 O        -2.593507         1.142803         1.954824
 C        -1.921276        -0.036437         1.604705
 H         0.802708        -0.658227         1.149948
 H        -0.189276         1.525729         2.707612
 H         0.334172         2.309332         1.171701
 H        -3.307038         3.514781         0.348101
 H        -1.967903         4.291129         1.202219
 H        -1.347884         3.287654        -1.529056
 H        -0.176399         3.124595        -0.363451
 H        -2.399782         1.089457        -0.701964
 H        -1.356036        -0.455876         2.477895
 H        -2.566733        -0.699921         0.996296
