19
Iteration:  2505charge 0 multiplicity 1
 O         0.288083        -0.325441         0.289442
 C        -0.683047         0.534276         0.819808
 C        -0.455834         1.729335         1.818379
 C        -1.912075         2.062632         1.265248
 C        -2.152194         3.444215         0.518805
 C        -1.233003         2.991716        -0.582765
 C        -1.434847         1.492092        -0.081710
 O        -2.756125         1.121839         1.838593
 C        -1.934927        -0.106577         1.565515
 H         0.189162        -0.178771        -0.761436
 H        -0.283173         1.456900         2.818475
 H         0.402966         2.383622         1.359105
 H        -3.198369         3.628156         0.102617
 H        -1.844599         4.214370         1.160584
 H        -1.727422         3.149609        -1.656234
 H        -0.230828         3.342540        -0.393657
 H        -2.228370         1.091954        -0.695216
 H        -1.496496        -0.611254         2.535957
 H        -2.440112        -0.725406         0.968555
