19
Iteration:  3320charge 0 multiplicity 1
 O         0.247361        -0.482809         0.373832
 C        -0.660199         0.526757         0.801628
 C        -0.389079         1.823365         1.760945
 C        -1.909171         2.094808         1.157840
 C        -2.207399         3.452217         0.545593
 C        -1.297990         3.009912        -0.606418
 C        -1.536177         1.523382        -0.209885
 O        -2.699847         1.106714         1.976079
 C        -1.893525        -0.074696         1.562374
 H         0.799134        -0.138833        -0.255017
 H        -0.377351         1.682131         2.829985
 H         0.450974         2.432316         1.343419
 H        -3.169157         3.358260         0.237371
 H        -1.885220         4.298556         1.132095
 H        -1.378575         3.084246        -1.775027
 H        -0.323886         3.376594        -0.355265
 H        -2.162876         1.097832        -0.943824
 H        -1.503010        -0.541970         2.530016
 H        -2.510208        -0.638591         0.881409
