19
Iteration:  3020
 O         0.256355        -0.499987         0.434858
 C        -0.653350         0.582984         0.821296
 C        -0.403677         1.790801         1.682633
 C        -1.856868         2.094452         1.207207
 C        -2.225962         3.417652         0.627846
 C        -1.315097         3.071054        -0.613365
 C        -1.485517         1.508007        -0.179458
 O        -2.691637         1.151110         1.855372
 C        -1.903916        -0.139949         1.531880
 H         0.603990        -0.181208        -0.474374
 H        -0.241420         1.631119         2.765349
 H         0.528206         2.351662         1.331085
 H        -3.237119         3.339531         0.272884
 H        -2.144059         4.288190         1.201152
 H        -1.722274         3.354856        -1.536563
 H        -0.229563         3.439155        -0.343605
 H        -2.262895         0.921939        -0.766259
 H        -1.617307        -0.545422         2.474107
 H        -2.596539        -0.654951         0.862717
