19
Iteration:  1536charge 0 multiplicity 1
 O         0.243729        -0.431868         0.468113
 C        -0.654940         0.584871         0.729147
 C        -0.447130         1.746171         1.641621
 C        -1.884783         2.096092         1.241846
 C        -2.137975         3.438306         0.661436
 C        -1.297340         2.971611        -0.597737
 C        -1.580627         1.499751        -0.222483
 O        -2.713558         1.120070         1.953266
 C        -1.846147        -0.070816         1.488849
 H         0.750098        -0.105600        -0.400657
 H        -0.079735         1.826876         2.651750
 H         0.403652         2.406428         1.108166
 H        -3.162417         3.582213         0.447813
 H        -1.716996         4.271683         1.221993
 H        -1.804742         3.283388        -1.509584
 H        -0.268033         3.244499        -0.626727
 H        -2.311632         1.029666        -0.793197
 H        -1.563357        -0.799596         2.318346
 H        -2.563159        -0.680037         0.899780
