19
Iteration:   773
 O         0.305532        -0.285559         0.325564
 C        -0.690096         0.552448         0.713102
 C        -0.378918         1.769048         1.526016
 C        -1.891591         2.059162         1.214683
 C        -2.188522         3.426207         0.606409
 C        -1.226676         2.985869        -0.564185
 C        -1.595005         1.453025        -0.124972
 O        -2.726275         1.128052         2.000795
 C        -1.920552        -0.124161         1.576233
 H         0.672368        -0.784597         1.032003
 H        -0.220644         1.738169         2.559983
 H         0.295716         2.614133         1.070493
 H        -3.200370         3.581477         0.351985
 H        -1.736354         4.243754         1.259765
 H        -1.715338         3.065923        -1.636751
 H        -0.212897         3.315539        -0.590077
 H        -2.253088         1.024554        -0.798083
 H        -1.664462        -0.694914         2.606639
 H        -2.554942        -0.773099         0.915109
