19
Iteration:  2917charge 0 multiplicity 1
 O         0.300651        -0.319469         0.331030
 C        -0.691734         0.544095         0.689993
 C        -0.448325         1.779342         1.774075
 C        -1.901235         2.095723         1.228014
 C        -2.184374         3.451121         0.599979
 C        -1.224418         2.935991        -0.534487
 C        -1.508485         1.519314        -0.137945
 O        -2.705629         1.092671         1.871352
 C        -1.871060        -0.062576         1.527476
 H        -0.062446        -1.162079        -0.038949
 H        -0.596452         1.650463         2.861204
 H         0.180316         2.544352         1.534572
 H        -3.159780         3.521494         0.136858
 H        -1.812759         4.217361         1.128802
 H        -1.453525         3.257121        -1.631867
 H        -0.202140         3.069494        -0.396657
 H        -2.300811         1.048306        -0.830817
 H        -1.633879        -0.512880         2.462769
 H        -2.534341        -0.887868         1.131997
