19
Iteration:  1749charge 0 multiplicity 1
 O         0.436283        -0.291169         0.391810
 C        -0.748624         0.567472         0.726353
 C        -0.412259         1.650319         1.584302
 C        -1.922237         2.081917         1.211810
 C        -2.171275         3.498423         0.636597
 C        -1.168008         3.048373        -0.493339
 C        -1.596658         1.507757        -0.178877
 O        -2.710030         1.095696         1.889637
 C        -2.010893        -0.113569         1.585726
 H         0.050444        -1.221765         0.120897
 H        -0.034890         1.556611         2.754603
 H         0.308693         2.327839         1.137527
 H        -3.226499         3.374482         0.204732
 H        -1.870203         4.387166         1.230072
 H        -1.587058         3.308230        -1.528015
 H        -0.075949         3.236610        -0.326535
 H        -2.405033         1.160820        -0.924906
 H        -1.740388        -0.793024         2.395083
 H        -2.690953        -0.822500         0.927595
