19
Iteration:  3083
 O         0.297966        -0.341433         0.312463
 C        -0.695642         0.581606         0.758332
 C        -0.485155         1.750070         1.668736
 C        -1.932489         2.146024         1.251949
 C        -2.114895         3.516609         0.606028
 C        -1.272176         2.857239        -0.626312
 C        -1.547735         1.482321        -0.124079
 O        -2.708394         1.106472         1.880665
 C        -1.898372        -0.111557         1.594082
 H         1.253088        -0.205186         0.723168
 H        -0.440948         1.450771         2.734278
 H         0.375072         2.472224         1.317284
 H        -3.207014         3.598500         0.242248
 H        -1.716247         4.308626         1.279640
 H        -1.615713         3.004376        -1.615426
 H        -0.175802         3.195793        -0.609882
 H        -2.463278         1.003751        -0.693878
 H        -1.589104        -0.661023         2.498944
 H        -2.517180        -0.807532         0.847345
