19
Iteration:  2611
 O         0.253042        -0.422551         0.404829
 C        -0.655390         0.598223         0.793948
 C        -0.369400         1.715823         1.760144
 C        -1.865927         2.027821         1.238127
 C        -2.203995         3.425861         0.640040
 C        -1.321876         2.994379        -0.594148
 C        -1.442107         1.444641        -0.224795
 O        -2.714594         1.145133         1.841887
 C        -1.985728        -0.002661         1.496537
 H         0.988244         0.089092        -0.218408
 H        -0.368194         1.509983         2.784169
 H         0.497714         2.406286         1.467635
 H        -3.381652         3.491388         0.477703
 H        -1.814961         4.291005         1.136396
 H        -1.717281         3.316079        -1.527093
 H        -0.334462         3.529544        -0.640661
 H        -2.320913         1.022580        -0.685970
 H        -1.553980        -0.514196         2.393323
 H        -2.496068        -0.890381         0.911012
