19
Iteration:  1962charge 0 multiplicity 1
 O         0.220280        -0.446629         0.450173
 C        -0.693017         0.597608         0.760147
 C        -0.401037         1.834845         1.637442
 C        -1.961919         2.073435         1.178038
 C        -2.169869         3.512537         0.628830
 C        -1.216154         3.008035        -0.562221
 C        -1.589032         1.513856        -0.211901
 O        -2.668332         0.984039         1.946716
 C        -1.909974        -0.104101         1.480143
 H         1.202635        -0.068974         0.320873
 H        -0.038931         1.776687         2.715387
 H         0.285397         2.485801         1.182197
 H        -3.087430         3.725074         0.133204
 H        -1.698237         4.241247         1.298040
 H        -1.580959         3.326772        -1.618490
 H        -0.239330         3.293523        -0.392890
 H        -2.376498         0.995485        -0.831018
 H        -1.436287        -0.690928         2.378883
 H        -2.595330        -0.660055         0.903935
