19
Iteration:  3831
 O         0.298532        -0.393344         0.421258
 C        -0.677756         0.528949         0.763968
 C        -0.388697         1.802077         1.602152
 C        -1.849557         2.062955         1.195317
 C        -2.201722         3.369675         0.568362
 C        -1.333391         2.955721        -0.535661
 C        -1.550244         1.475289        -0.197700
 O        -2.691257         1.165544         1.983543
 C        -1.897456        -0.007690         1.573288
 H         0.402914        -0.619537        -0.536083
 H        -0.137094         1.591265         2.601135
 H         0.319250         2.532787         1.179059
 H        -3.316936         3.342806         0.181149
 H        -1.972348         4.326721         1.021980
 H        -1.540285         3.267227        -1.508704
 H        -0.296882         3.375523        -0.440801
 H        -2.402335         0.974848        -0.762162
 H        -1.511114        -0.432456         2.454399
 H        -2.490986        -0.691512         1.068552
