19
Iteration:  1138
 O         0.298722        -0.334381         0.290892
 C        -0.755590         0.479867         0.723603
 C        -0.397978         1.793598         1.601946
 C        -1.899143         2.090293         1.215594
 C        -2.152301         3.486741         0.622971
 C        -1.309063         2.976735        -0.547732
 C        -1.490861         1.435314        -0.200890
 O        -2.698348         1.124948         1.936626
 C        -1.920801        -0.127613         1.634543
 H         0.746110        -0.583072         1.046348
 H        -0.245932         1.817281         2.717730
 H         0.436840         2.456769         1.099442
 H        -3.264980         3.755453         0.354532
 H        -1.657301         4.371082         1.120990
 H        -1.802652         3.184676        -1.443733
 H        -0.229869         3.518728        -0.689398
 H        -2.259354         0.877553        -0.820035
 H        -1.639033        -0.598737         2.600450
 H        -2.599403        -0.803456         1.129300
