19
Iteration:  2932
 O         0.386711        -0.260909         0.297447
 C        -0.721182         0.560997         0.803108
 C        -0.492578         1.734775         1.682981
 C        -1.915646         2.070528         1.220350
 C        -2.106108         3.481294         0.566834
 C        -1.160508         2.980335        -0.567818
 C        -1.606794         1.477707        -0.154065
 O        -2.771079         1.064215         1.880682
 C        -1.922821        -0.101321         1.616331
 H         0.004525        -1.227392         0.087318
 H        -0.221095         1.435045         2.728140
 H         0.435553         2.383547         1.342764
 H        -3.175639         3.641677         0.282312
 H        -1.989020         4.431855         1.191889
 H        -1.321186         3.302261        -1.570488
 H        -0.022035         3.405140        -0.387162
 H        -2.553155         1.041351        -0.625552
 H        -1.462938        -0.615389         2.491669
 H        -2.453987        -0.830782         0.956348
