19
Iteration:   496
 O         0.269322        -0.357383         0.283294
 C        -0.709918         0.564746         0.758584
 C        -0.360965         1.841345         1.674328
 C        -1.904035         2.072146         1.271930
 C        -2.187588         3.472127         0.624671
 C        -1.316278         2.865335        -0.655933
 C        -1.486530         1.425630        -0.159422
 O        -2.708468         1.094063         1.948383
 C        -1.920928        -0.001566         1.513005
 H         0.708379        -0.658949         1.086302
 H        -0.132741         1.649217         2.758952
 H         0.280206         2.618213         1.251986
 H        -3.200137         3.851305         0.300372
 H        -1.714033         4.243406         1.231806
 H        -1.796197         3.079026        -1.557692
 H        -0.298173         3.270302        -0.506090
 H        -2.208841         0.939837        -0.684596
 H        -1.544997        -0.571351         2.540950
 H        -2.452337        -0.818515         0.900151
