19
Iteration:  2743charge 0 multiplicity 1
 O         0.368231        -0.418669         0.472457
 C        -0.667702         0.589363         0.763274
 C        -0.473452         1.782179         1.647638
 C        -1.872713         2.059064         1.182616
 C        -2.188481         3.433013         0.651362
 C        -1.291314         3.051665        -0.528759
 C        -1.464663         1.485637        -0.264880
 O        -2.667470         1.100157         1.950167
 C        -2.005749        -0.074061         1.463826
 H        -0.140822        -1.129255        -0.007138
 H        -0.298344         1.754409         2.711223
 H         0.244150         2.468931         1.124976
 H        -3.320063         3.690825         0.673126
 H        -1.853318         4.170208         1.283563
 H        -1.564683         3.292828        -1.587772
 H        -0.287370         3.405638        -0.481897
 H        -2.236543         1.025059        -0.958244
 H        -1.708042        -0.632686         2.216691
 H        -2.487177        -0.605264         0.652286
