19
Iteration:  2726charge 0 multiplicity 1
 O         0.291633        -0.400753         0.546439
 C        -0.683228         0.583320         0.694573
 C        -0.372605         1.782889         1.665069
 C        -1.909010         2.050402         1.220755
 C        -2.134185         3.436999         0.721273
 C        -1.332407         3.004628        -0.581645
 C        -1.506581         1.535462        -0.202420
 O        -2.691836         1.096560         1.858726
 C        -1.884029        -0.041656         1.381548
 H        -0.025881        -1.347484         0.255610
 H        -0.252806         1.441978         2.756852
 H         0.294102         2.559756         1.387925
 H        -3.188480         3.515627         0.404531
 H        -1.937105         4.441404         1.319317
 H        -1.854559         3.327949        -1.525889
 H        -0.328337         3.474943        -0.809038
 H        -2.253578         0.925372        -0.708570
 H        -1.612696        -0.816127         2.312559
 H        -2.582688        -0.610096         0.700394
