19
Iteration:  1757
 O         0.391188        -0.287685         0.411736
 C        -0.735644         0.529887         0.714855
 C        -0.433014         1.745907         1.565729
 C        -1.954314         2.069390         1.218246
 C        -2.150850         3.523741         0.654552
 C        -1.142173         3.013275        -0.534913
 C        -1.582478         1.549517        -0.148550
 O        -2.705454         1.060537         1.927884
 C        -1.969846        -0.175695         1.561612
 H         0.054328        -1.183559         0.102458
 H        -0.148329         1.286195         2.611916
 H         0.182210         2.355330         1.002117
 H        -3.106792         3.580796         0.188524
 H        -2.003443         4.437916         1.329943
 H        -1.351800         3.242336        -1.642835
 H        -0.168116         3.427078        -0.500421
 H        -2.275052         1.101765        -0.819052
 H        -1.838915        -0.803502         2.542914
 H        -2.707189        -0.609779         0.741115
