19
Iteration:  2079charge 0 multiplicity 1
 O         0.322745        -0.396073         0.409053
 C        -0.693818         0.486277         0.721268
 C        -0.451402         1.699298         1.643503
 C        -1.936190         2.060715         1.243418
 C        -2.157852         3.510575         0.625490
 C        -1.241900         3.038550        -0.584122
 C        -1.453951         1.526042        -0.191132
 O        -2.703836         1.106556         1.901873
 C        -1.998355        -0.114160         1.609906
 H         0.924650        -0.041592        -0.336643
 H        -0.161962         1.499207         2.685998
 H         0.276667         2.445347         1.313159
 H        -3.226383         3.609605         0.196750
 H        -1.930670         4.329405         1.269334
 H        -1.825156         3.202367        -1.516089
 H        -0.294382         3.534346        -0.592829
 H        -2.121246         1.141573        -1.004035
 H        -1.626234        -0.502060         2.463414
 H        -2.732930        -0.812998         1.094585
