19
Iteration:  4759charge 0 multiplicity 1
 O         0.300052        -0.353818         0.243365
 C        -0.730927         0.532240         0.783285
 C        -0.407532         1.775270         1.681057
 C        -1.842124         2.135562         1.176459
 C        -2.194006         3.436184         0.580182
 C        -1.362002         2.888732        -0.703580
 C        -1.539695         1.407446        -0.190141
 O        -2.613428         1.177512         1.961235
 C        -1.902643        -0.018548         1.727193
 H         0.596884        -0.947716         0.850131
 H        -0.257920         1.668219         2.748735
 H         0.310628         2.580066         1.428358
 H        -3.242803         3.445283         0.176317
 H        -2.059914         4.363010         1.199528
 H        -1.851717         3.197615        -1.675298
 H        -0.394600         3.221992        -0.789702
 H        -2.348308         0.813688        -0.505910
 H        -1.438561        -0.360168         2.686232
 H        -2.564480        -0.773126         1.308353
