19
Iteration:  2836charge 0 multiplicity 1
 O         0.353558        -0.374310         0.477611
 C        -0.728481         0.625518         0.734548
 C        -0.449864         1.765250         1.715684
 C        -1.914723         2.059060         1.194481
 C        -2.126743         3.408211         0.627792
 C        -1.258041         3.019662        -0.598759
 C        -1.519313         1.500255        -0.275528
 O        -2.713362         1.101761         1.938479
 C        -1.945168        -0.162185         1.501230
 H         0.242938        -0.547017        -0.532440
 H        -0.233937         1.449696         2.719794
 H         0.336411         2.523509         1.350507
 H        -3.094796         3.837765         0.528307
 H        -1.704839         4.325405         1.298048
 H        -1.739420         3.260070        -1.495460
 H        -0.162184         3.392415        -0.563216
 H        -2.252436         1.021907        -0.825866
 H        -1.668657        -0.593609         2.548405
 H        -2.673033        -0.635277         0.888697
