19
Iteration:  4158
 O         0.371094        -0.320435         0.286964
 C        -0.692316         0.522857         0.782363
 C        -0.312446         1.734414         1.652985
 C        -1.904753         2.060002         1.208689
 C        -2.217636         3.475854         0.568215
 C        -1.357929         2.912966        -0.692135
 C        -1.544539         1.446842        -0.119486
 O        -2.741120         1.163809         1.920914
 C        -1.905484        -0.030964         1.661131
 H         0.356461        -1.086484         0.775248
 H         0.003590         1.651998         2.693888
 H         0.389428         2.469255         1.378470
 H        -3.324410         3.646764         0.571530
 H        -1.853328         4.324125         1.061954
 H        -1.787571         3.081483        -1.642656
 H        -0.256896         3.246065        -0.752560
 H        -2.397533         1.010530        -0.481851
 H        -1.539147        -0.364315         2.671268
 H        -2.464436        -0.666907         1.012361
