19
Iteration:  1580
 O         0.366995        -0.347674         0.308591
 C        -0.753835         0.512950         0.772940
 C        -0.454473         1.725175         1.658486
 C        -1.886177         2.031569         1.208799
 C        -2.156547         3.482500         0.635796
 C        -1.303691         3.036242        -0.608378
 C        -1.467440         1.493609        -0.202472
 O        -2.716117         1.168710         1.953750
 C        -1.897835        -0.107586         1.599394
 H        -0.076744        -1.247943        -0.041461
 H        -0.350243         1.530780         2.677814
 H         0.491813         2.432720         1.588835
 H        -3.147599         3.520562         0.376445
 H        -2.025681         4.404573         1.196745
 H        -1.723534         3.241201        -1.551013
 H        -0.311489         3.451742        -0.493206
 H        -2.193166         1.134607        -0.831715
 H        -1.581472        -0.611948         2.574856
 H        -2.467502        -0.814656         0.892429
