19
Iteration:  2161
 O         0.289996        -0.389494         0.474955
 C        -0.730299         0.490444         0.699390
 C        -0.445468         1.754504         1.552024
 C        -1.907104         2.058171         1.173028
 C        -2.200839         3.473917         0.675125
 C        -1.227250         2.982533        -0.458495
 C        -1.549892         1.468376        -0.218395
 O        -2.635156         1.153377         1.908478
 C        -1.939450        -0.089103         1.514351
 H         0.927504        -0.050589        -0.082905
 H        -0.547467         1.490637         2.588090
 H         0.385804         2.479319         1.226183
 H        -3.141925         3.701262         0.268929
 H        -2.068289         4.289122         1.479910
 H        -1.543817         3.325311        -1.464395
 H        -0.104362         3.317840        -0.472878
 H        -2.354243         1.165261        -0.915536
 H        -1.449254        -0.657742         2.489520
 H        -2.595566        -0.687148         0.870398
