19
Iteration:  2230charge 0 multiplicity 1
 O         0.206380        -0.420276         0.342409
 C        -0.661548         0.596756         0.761861
 C        -0.451159         1.814529         1.757530
 C        -1.919283         2.051218         1.211372
 C        -2.140813         3.440390         0.643173
 C        -1.267787         2.947565        -0.568967
 C        -1.488451         1.473749        -0.183270
 O        -2.685631         1.121578         1.912424
 C        -1.890659        -0.073606         1.502254
 H         0.895388        -0.036436        -0.292874
 H        -0.522589         1.394405         2.760111
 H         0.182297         2.601713         1.502784
 H        -3.206155         3.562984         0.239192
 H        -1.748428         4.336282         1.092699
 H        -1.497866         3.330256        -1.561422
 H        -0.242830         3.295431        -0.517843
 H        -2.232658         0.900493        -0.667411
 H        -1.678901        -0.719761         2.504905
 H        -2.463457        -0.630458         0.741096
