19
Iteration:   150
 O         0.192612        -0.366062         0.301320
 C        -0.670714         0.525071         0.816890
 C        -0.409043         1.801031         1.645829
 C        -1.907587         2.115749         1.208707
 C        -2.198627         3.515085         0.558256
 C        -1.266119         2.885102        -0.635298
 C        -1.564260         1.460683        -0.165432
 O        -2.651923         1.121400         1.941952
 C        -1.831725        -0.061312         1.595687
 H         1.015804        -0.537623         0.941522
 H        -0.177277         1.689693         2.839189
 H         0.221592         2.475402         1.192746
 H        -3.291214         3.514265         0.335702
 H        -1.923634         4.328890         1.230014
 H        -1.616750         3.161513        -1.602769
 H        -0.137394         3.176739        -0.471958
 H        -2.438724         0.942274        -0.664666
 H        -1.679139        -0.758100         2.517988
 H        -2.466857        -0.706336         0.850404
