19
Iteration:   202
 O         0.272743        -0.337995         0.264699
 C        -0.683350         0.488295         0.831411
 C        -0.432934         1.783640         1.713005
 C        -1.833103         2.109782         1.162116
 C        -2.197719         3.475707         0.554942
 C        -1.378462         2.984104        -0.620014
 C        -1.518591         1.414681        -0.134164
 O        -2.619842         1.161338         1.910893
 C        -1.930817        -0.090353         1.586307
 H         0.672601        -0.978925         0.928610
 H        -0.335792         1.787681         2.801383
 H         0.550938         2.155551         1.435867
 H        -3.282950         3.615778         0.485553
 H        -1.747480         4.307862         1.100629
 H        -1.708147         3.164555        -1.634192
 H        -0.327458         3.484707        -0.669617
 H        -2.411630         0.883077        -0.710336
 H        -1.675910        -0.403473         2.567946
 H        -2.496761        -0.909286         1.114858
