19
Iteration:  2114charge 0 multiplicity 1
 O         0.178102        -0.451122         0.324602
 C        -0.624676         0.576421         0.784160
 C        -0.411221         1.750997         1.811055
 C        -1.895946         2.117249         1.244368
 C        -2.164608         3.479994         0.656917
 C        -1.318920         2.917003        -0.591186
 C        -1.508513         1.493324        -0.116470
 O        -2.670202         1.131787         1.792570
 C        -1.852646        -0.042675         1.472789
 H         1.172160        -0.084636         0.368586
 H        -0.307981         1.408974         2.876472
 H         0.275641         2.412722         1.432706
 H        -3.246179         3.493046         0.399261
 H        -2.024240         4.395306         1.146108
 H        -1.846308         3.188625        -1.624261
 H        -0.373789         3.341633        -0.729426
 H        -2.300955         0.939941        -0.751684
 H        -1.661643        -0.512993         2.439407
 H        -2.512357        -0.717165         0.788621
