19
Iteration:  4393charge 0 multiplicity 1
 O         0.239134        -0.418126         0.328765
 C        -0.648638         0.621795         0.714308
 C        -0.361685         1.855206         1.593842
 C        -1.911701         2.070517         1.194931
 C        -2.237626         3.436568         0.574445
 C        -1.323737         2.936004        -0.665717
 C        -1.525610         1.415332        -0.192105
 O        -2.653248         1.131590         2.026132
 C        -1.878898        -0.045738         1.678950
 H         0.398961        -0.977417         1.092268
 H        -0.064045         1.675077         2.607091
 H         0.271892         2.722190         1.229659
 H        -3.314280         3.667154         0.263747
 H        -1.878885         4.481487         1.081280
 H        -1.754553         2.956513        -1.651611
 H        -0.291719         3.262385        -0.624390
 H        -2.372606         0.842794        -0.660192
 H        -1.293472        -0.396258         2.495417
 H        -2.437837        -0.857809         1.064307
