19
Iteration:  1592
 O         0.279137        -0.342939         0.260692
 C        -0.618550         0.568451         0.719674
 C        -0.431573         1.749656         1.765149
 C        -1.881032         2.112811         1.245748
 C        -2.193806         3.425658         0.629715
 C        -1.237151         3.007929        -0.593664
 C        -1.496769         1.461722        -0.168941
 O        -2.700030         1.100183         1.925726
 C        -1.932394        -0.056544         1.557570
 H        -0.081390        -1.238562         0.340871
 H        -0.467098         1.470298         2.777732
 H         0.277653         2.592479         1.383165
 H        -3.146701         3.497365         0.280296
 H        -1.898513         4.324662         1.209138
 H        -1.798331         3.144760        -1.454382
 H        -0.274187         3.460544        -0.823171
 H        -2.205296         0.963586        -0.735407
 H        -1.565565        -0.502410         2.505518
 H        -2.620833        -0.793192         1.030498
