19
Iteration:  3321
 O         0.249230        -0.479618         0.376299
 C        -0.665517         0.535062         0.796278
 C        -0.391822         1.823784         1.755458
 C        -1.907218         2.079770         1.153873
 C        -2.208060         3.457960         0.546439
 C        -1.296226         3.011444        -0.608197
 C        -1.534819         1.518473        -0.206521
 O        -2.696849         1.106536         1.977459
 C        -1.895504        -0.071555         1.567027
 H         0.787740        -0.164389        -0.292297
 H        -0.377552         1.683774         2.839751
 H         0.440508         2.420142         1.379623
 H        -3.192689         3.359898         0.255311
 H        -1.884832         4.296532         1.124021
 H        -1.379384         3.089402        -1.762386
 H        -0.281040         3.365032        -0.347453
 H        -2.167492         1.088760        -0.938795
 H        -1.529190        -0.543909         2.534510
 H        -2.486457        -0.622904         0.863789
