19
Iteration:  3396
 O         0.333084        -0.283836         0.397053
 C        -0.668175         0.543242         0.723510
 C        -0.502629         1.702820         1.662264
 C        -1.855772         2.151309         1.206421
 C        -2.157354         3.457858         0.662671
 C        -1.269836         2.946728        -0.644587
 C        -1.513000         1.432917        -0.169040
 O        -2.747956         1.118562         1.891191
 C        -1.875527        -0.059571         1.545967
 H         0.136186        -1.349381         0.435532
 H        -0.384254         1.640114         2.742409
 H         0.334288         2.428824         1.543036
 H        -3.200381         3.684448         0.395750
 H        -1.557276         4.303535         1.179555
 H        -1.926511         3.288400        -1.552175
 H        -0.289992         3.335932        -0.709289
 H        -2.329223         0.934659        -0.634190
 H        -1.494052        -0.702580         2.478854
 H        -2.556671        -0.749658         1.020905
