19
Iteration:  2831charge 0 multiplicity 1
 O         0.348458        -0.363806         0.417084
 C        -0.723757         0.593438         0.760322
 C        -0.497749         1.788557         1.682296
 C        -1.912549         2.065306         1.264482
 C        -2.116246         3.457387         0.619325
 C        -1.232141         3.021660        -0.603629
 C        -1.453462         1.477626        -0.248549
 O        -2.715706         1.086955         1.938717
 C        -1.955675        -0.148097         1.524347
 H         0.192466        -0.524320        -0.478537
 H        -0.392902         1.587247         2.813880
 H         0.234997         2.450860         1.347485
 H        -3.177917         3.913206         0.405150
 H        -1.693605         4.161164         1.292087
 H        -1.837126         3.236904        -1.561825
 H        -0.229196         3.322641        -0.581901
 H        -2.225458         0.824608        -0.842314
 H        -1.675943        -0.556071         2.430641
 H        -2.631887        -0.790986         0.867651
