19
Iteration:  1172charge 0 multiplicity 1
 O         0.267866        -0.371945         0.330523
 C        -0.725892         0.642475         0.715641
 C        -0.414759         1.817005         1.683957
 C        -1.958290         2.048147         1.223916
 C        -2.113450         3.445132         0.587939
 C        -1.303973         2.935123        -0.559611
 C        -1.610494         1.405613        -0.208063
 O        -2.641400         1.129415         1.992675
 C        -1.822692        -0.091788         1.495081
 H         0.621992        -0.675644         1.178869
 H        -0.540950         1.535524         2.779571
 H         0.361240         2.562547         1.340114
 H        -3.204913         3.784581         0.253446
 H        -1.546322         4.310299         1.092813
 H        -1.672519         3.274766        -1.555691
 H        -0.135373         3.207764        -0.569988
 H        -2.394830         1.021338        -0.866670
 H        -1.534275        -0.733218         2.362840
 H        -2.600023        -0.561978         0.906321
