19
Iteration:  1503
 O         0.199587        -0.444509         0.256915
 C        -0.632703         0.547260         0.766674
 C        -0.461046         1.766839         1.775310
 C        -1.819727         2.122174         1.231309
 C        -2.188990         3.493204         0.605607
 C        -1.306940         2.953051        -0.637742
 C        -1.483915         1.497679        -0.185839
 O        -2.688262         1.137737         1.928267
 C        -1.885351        -0.131318         1.592042
 H         1.142317        -0.289518         0.412073
 H        -0.619274         1.713772         2.868381
 H         0.554075         2.365235         1.445279
 H        -3.242102         3.563142         0.391976
 H        -1.952321         4.424931         1.123804
 H        -2.046708         3.146047        -1.457156
 H        -0.408044         3.429899        -0.876057
 H        -2.229790         1.002390        -0.736114
 H        -1.501573        -0.544647         2.565803
 H        -2.551067        -0.627766         0.889904
