19
Iteration:  4138charge 0 multiplicity 1
 O         0.265432        -0.345376         0.330414
 C        -0.722573         0.544447         0.736306
 C        -0.433478         1.815311         1.697902
 C        -1.794457         2.062099         1.240167
 C        -2.190490         3.447955         0.576450
 C        -1.421245         2.913712        -0.632959
 C        -1.531497         1.450569        -0.222427
 O        -2.610645         1.201430         1.952605
 C        -1.855502        -0.093014         1.585792
 H         0.524796        -0.943870         1.075748
 H        -0.449914         1.590392         2.785313
 H         0.462962         2.348640         1.437701
 H        -3.212329         3.408557         0.243120
 H        -1.994654         4.394699         0.995799
 H        -1.778278         3.136295        -1.604535
 H        -0.368155         3.249053        -0.738909
 H        -2.349802         0.872520        -0.625549
 H        -1.445772        -0.403105         2.582225
 H        -2.488055        -0.769629         0.903611
