19
Iteration:  1943
 O         0.252298        -0.419182         0.430644
 C        -0.743530         0.482592         0.747573
 C        -0.531062         1.812191         1.662053
 C        -1.895944         2.114583         1.145669
 C        -2.145970         3.548585         0.635961
 C        -1.263087         3.019132        -0.562112
 C        -1.458866         1.481845        -0.185607
 O        -2.667297         1.073251         1.940391
 C        -1.873937        -0.153452         1.525866
 H         0.947764         0.018136        -0.171805
 H        -0.397959         1.557177         2.802012
 H         0.241086         2.431471         1.235596
 H        -3.227885         3.577625         0.412070
 H        -1.660191         4.452155         1.280784
 H        -1.744225         3.223015        -1.590008
 H        -0.250042         3.468008        -0.719843
 H        -2.235660         1.036457        -0.795602
 H        -1.704143        -0.762679         2.466183
 H        -2.399271        -0.870615         0.878987
