19
Iteration:   825charge 0 multiplicity 1
 O         0.206080        -0.380001         0.221994
 C        -0.701516         0.577186         0.805236
 C        -0.383746         1.756944         1.771280
 C        -1.897729         2.110964         1.257739
 C        -2.203562         3.479293         0.532757
 C        -1.334151         3.012049        -0.669844
 C        -1.430851         1.507020        -0.145618
 O        -2.670974         1.046142         1.957996
 C        -1.862048        -0.047957         1.593107
 H         0.773627        -0.783928         0.802378
 H        -0.237694         1.492179         2.828558
 H         0.353952         2.561642         1.369555
 H        -3.242259         3.421082         0.202943
 H        -1.952247         4.443919         1.046294
 H        -1.994208         2.980220        -1.554540
 H        -0.243479         3.360277        -0.694204
 H        -2.221478         0.808869        -0.767626
 H        -1.610862        -0.613852         2.443899
 H        -2.441079        -0.803981         1.065254
