19
Iteration:  1333
 O         0.210621        -0.362737         0.261400
 C        -0.642030         0.506222         0.852986
 C        -0.443439         1.773491         1.661729
 C        -1.913785         2.138461         1.213856
 C        -2.129637         3.507147         0.526247
 C        -1.293234         2.967072        -0.569633
 C        -1.561606         1.479999        -0.099184
 O        -2.694290         1.069406         1.924739
 C        -1.867857        -0.072175         1.576811
 H         0.950525        -0.476352         0.912997
 H        -0.203498         1.523240         2.669789
 H         0.327016         2.408941         1.168424
 H        -3.116357         3.491802         0.208768
 H        -1.884393         4.345220         1.057435
 H        -1.639780         3.210580        -1.508246
 H        -0.179973         3.328924        -0.637217
 H        -2.392448         1.088522        -0.772926
 H        -1.530324        -0.738627         2.451876
 H        -2.395866        -0.823747         0.877709
