19
Iteration:  4373charge 0 multiplicity 1
 O         0.218373        -0.387840         0.308895
 C        -0.646835         0.551759         0.818889
 C        -0.415897         1.917768         1.681087
 C        -1.862295         2.113429         1.252240
 C        -2.177606         3.440693         0.505011
 C        -1.370763         2.867116        -0.684390
 C        -1.623594         1.437110        -0.136978
 O        -2.621282         1.126384         1.995298
 C        -1.772624        -0.025841         1.576721
 H         0.317289        -1.079789         0.883669
 H        -0.205256         1.733878         2.758587
 H         0.381011         2.332720         1.066070
 H        -3.153046         3.479335         0.164313
 H        -1.950862         4.429154         1.024348
 H        -1.794139         3.022471        -1.637906
 H        -0.303746         3.230930        -0.601152
 H        -2.559406         1.007319        -0.666759
 H        -1.580104        -0.563143         2.557735
 H        -2.283980        -0.761980         0.795953
