19
Iteration:  1633
 O         0.279926        -0.410110         0.245027
 C        -0.725334         0.532613         0.743582
 C        -0.438191         1.763485         1.700112
 C        -1.903024         2.074250         1.196269
 C        -2.168488         3.500464         0.625185
 C        -1.235090         3.033212        -0.548120
 C        -1.504210         1.505145        -0.133902
 O        -2.695440         1.078259         1.923161
 C        -1.956766        -0.072547         1.569426
 H         1.056457        -0.306044         0.914223
 H        -0.259568         1.607535         2.732048
 H         0.387927         2.417926         1.200916
 H        -3.178611         3.450997         0.164987
 H        -1.946185         4.314141         1.270124
 H        -1.662634         3.246297        -1.526999
 H        -0.172930         3.316968        -0.547700
 H        -2.290631         1.086230        -0.761500
 H        -1.567420        -0.792645         2.407008
 H        -2.565831        -0.805285         0.982691
