19
Iteration:  3849
 O         0.286140        -0.418793         0.460388
 C        -0.681730         0.563976         0.674895
 C        -0.374511         1.789129         1.654820
 C        -1.913386         2.113294         1.281437
 C        -2.280436         3.451325         0.609872
 C        -1.205804         3.012157        -0.732749
 C        -1.559512         1.544856        -0.189983
 O        -2.640100         1.083977         1.969073
 C        -1.864901        -0.099634         1.625813
 H        -0.070938        -0.741940        -0.436501
 H        -0.168153         1.629027         2.757811
 H         0.395298         2.438899         1.263367
 H        -3.321995         3.528469         0.151090
 H        -2.269816         4.383158         1.164396
 H        -1.756780         3.035301        -1.759433
 H        -0.191216         3.302254        -0.612243
 H        -2.305226         1.001608        -0.711667
 H        -1.498196        -0.676588         2.608044
 H        -2.595082        -0.775532         0.985837
