19
Iteration:  1854charge 0 multiplicity 1
 O         0.287980        -0.395461         0.447207
 C        -0.709857         0.581909         0.689514
 C        -0.503488         1.758371         1.669915
 C        -2.008413         2.053481         1.221966
 C        -2.142483         3.404496         0.626121
 C        -1.212453         2.953484        -0.490078
 C        -1.531433         1.501731        -0.256012
 O        -2.635035         1.121551         1.988349
 C        -1.880032        -0.001869         1.450391
 H         0.408023        -0.660552        -0.474579
 H        -0.405439         1.374896         2.739546
 H         0.289900         2.419239         1.338155
 H        -3.130075         3.687436         0.238180
 H        -1.963277         4.380686         1.255870
 H        -1.488303         3.392099        -1.534603
 H        -0.196076         3.220964        -0.356420
 H        -2.087428         1.083494        -1.091496
 H        -1.522648        -0.596343         2.358139
 H        -2.510898        -0.672408         0.987577
