19
Iteration:   389
 O         0.311794        -0.348244         0.270980
 C        -0.721536         0.570708         0.803767
 C        -0.421306         1.748373         1.674963
 C        -1.918986         2.072120         1.185588
 C        -2.208658         3.509947         0.541866
 C        -1.265779         2.976253        -0.603295
 C        -1.569480         1.423940        -0.156284
 O        -2.676202         1.125384         2.020985
 C        -1.857342        -0.077036         1.586238
 H         0.516866        -1.014445         0.962623
 H        -0.111774         1.659709         2.798282
 H         0.337077         2.242991         1.147452
 H        -3.223751         3.666476         0.099149
 H        -1.878501         4.388829         1.069266
 H        -1.653591         3.216706        -1.563905
 H        -0.290090         3.534060        -0.728689
 H        -2.348668         0.893046        -0.842323
 H        -1.468572        -0.676046         2.375828
 H        -2.508546        -0.766873         0.979830
