19
Iteration:  1961charge 0 multiplicity 1
 O         0.223051        -0.448737         0.449435
 C        -0.698005         0.593195         0.764052
 C        -0.403645         1.836025         1.635263
 C        -1.953300         2.080538         1.180597
 C        -2.168421         3.522689         0.634474
 C        -1.217327         3.007619        -0.566552
 C        -1.584071         1.512965        -0.212408
 O        -2.666828         0.977050         1.946543
 C        -1.913299        -0.110201         1.484582
 H         1.170122        -0.052421         0.307313
 H        -0.088928         1.834703         2.690854
 H         0.323442         2.489756         1.192519
 H        -3.086063         3.749129         0.136642
 H        -1.734907         4.228719         1.265305
 H        -1.593948         3.300333        -1.595663
 H        -0.243533         3.281839        -0.377724
 H        -2.357754         0.994866        -0.862806
 H        -1.411605        -0.653215         2.352376
 H        -2.644650        -0.683483         0.882205
