19
Iteration:  3847charge 0 multiplicity 1
 O         0.290128        -0.426408         0.456726
 C        -0.686894         0.592950         0.656654
 C        -0.369049         1.786857         1.647809
 C        -1.919799         2.105118         1.282324
 C        -2.281769         3.438733         0.593601
 C        -1.199374         3.016593        -0.730216
 C        -1.551101         1.527320        -0.173520
 O        -2.642518         1.097018         1.970123
 C        -1.882154        -0.105279         1.627760
 H         0.007677        -0.680931        -0.365061
 H        -0.141729         1.631577         2.776622
 H         0.357882         2.491132         1.224075
 H        -3.243461         3.481893         0.241845
 H        -2.276318         4.386662         1.210148
 H        -1.783898         3.061093        -1.728353
 H        -0.179184         3.267196        -0.553494
 H        -2.352341         1.017687        -0.694728
 H        -1.475498        -0.662031         2.569258
 H        -2.602659        -0.803079         1.006525
