19
Iteration:  1782
 O         0.327795        -0.359703         0.403424
 C        -0.717421         0.647113         0.741259
 C        -0.492812         1.746415         1.776890
 C        -1.890480         2.072886         1.166870
 C        -2.077643         3.457694         0.645839
 C        -1.294310         2.978982        -0.535655
 C        -1.543626         1.475745        -0.226174
 O        -2.662611         1.074429         1.901666
 C        -1.911246        -0.067427         1.490099
 H        -0.145268        -0.908271        -0.162030
 H        -0.577327         1.444288         2.922106
 H         0.280433         2.424984         1.328500
 H        -3.201544         3.634364         0.446765
 H        -1.655523         4.304225         1.213184
 H        -1.593317         3.297906        -1.570250
 H        -0.225413         3.344114        -0.586414
 H        -2.248095         0.829105        -0.848424
 H        -1.508231        -0.675616         2.305902
 H        -2.648559        -0.597872         0.726609
