19
Iteration:  4644
 O         0.191031        -0.468805         0.274687
 C        -0.697375         0.599018         0.853105
 C        -0.393006         1.880856         1.640730
 C        -1.879888         2.124636         1.165415
 C        -2.267099         3.459276         0.586101
 C        -1.332069         2.840149        -0.668736
 C        -1.536172         1.460782        -0.151376
 O        -2.580200         1.138806         1.946296
 C        -1.827671        -0.027294         1.645952
 H         0.685446        -0.796643         1.059088
 H        -0.214352         1.836695         2.729765
 H         0.338228         2.550673         1.213420
 H        -3.313695         3.482111         0.482625
 H        -1.919229         4.268492         1.104661
 H        -1.678339         3.039687        -1.660542
 H        -0.333605         3.443379        -0.652580
 H        -2.257941         0.914368        -0.822063
 H        -1.496368        -0.544711         2.556588
 H        -2.401808        -0.696870         0.956311
