19
Iteration:  4107
 O         0.225875        -0.432677         0.312654
 C        -0.654986         0.557234         0.783692
 C        -0.392773         1.867664         1.550375
 C        -1.949970         2.021912         1.244677
 C        -2.216896         3.459743         0.519334
 C        -1.345928         2.979742        -0.580226
 C        -1.476496         1.457380        -0.174834
 O        -2.636348         1.135125         2.048576
 C        -1.891742        -0.048393         1.588134
 H         1.032456        -0.600849         0.885768
 H        -0.133098         1.835547         2.653501
 H         0.416107         2.530999         1.158940
 H        -3.216491         3.608222         0.129735
 H        -1.989613         4.477311         1.018232
 H        -1.666536         3.138355        -1.609921
 H        -0.289969         3.183778        -0.396834
 H        -2.272493         0.801822        -0.803338
 H        -1.765519        -0.657300         2.508907
 H        -2.421844        -0.833583         0.864807
