19
Iteration:  2731charge 0 multiplicity 1
 O         0.302258        -0.409711         0.539901
 C        -0.639678         0.585062         0.696889
 C        -0.425604         1.801712         1.649762
 C        -1.892471         2.056197         1.258212
 C        -2.149861         3.410032         0.728926
 C        -1.324154         3.003372        -0.581358
 C        -1.488338         1.526123        -0.231495
 O        -2.681004         1.106390         1.877762
 C        -1.910362        -0.065492         1.390810
 H        -0.155199        -1.154505         0.256150
 H        -0.289871         1.544909         2.656058
 H         0.333684         2.606313         1.339490
 H        -3.116651         3.534081         0.213965
 H        -1.814189         4.236061         1.251385
 H        -1.940488         3.295618        -1.406202
 H        -0.320068         3.453194        -0.640346
 H        -2.354683         1.082163        -0.841179
 H        -1.719402        -0.683655         2.155151
 H        -2.605356        -0.597169         0.760781
