19
Iteration:  4752
 O         0.251115        -0.338293         0.243397
 C        -0.672634         0.534010         0.805154
 C        -0.421442         1.814726         1.644950
 C        -1.849449         2.097663         1.257070
 C        -2.156858         3.492828         0.534103
 C        -1.368589         2.852808        -0.665888
 C        -1.569902         1.393531        -0.207646
 O        -2.624920         1.151947         1.916961
 C        -1.839500        -0.024310         1.730988
 H         0.655202        -0.959016         0.905616
 H        -0.519260         1.760673         2.778798
 H         0.393690         2.499314         1.424200
 H        -3.246584         3.482427         0.232640
 H        -1.971965         4.458147         1.167470
 H        -1.931147         3.211487        -1.459218
 H        -0.294716         3.213770        -0.869569
 H        -2.452936         0.884408        -0.653888
 H        -1.591498        -0.462936         2.735218
 H        -2.530633        -0.772118         1.340133
