19
Iteration:   749
 O         0.279432        -0.340656         0.324819
 C        -0.686768         0.562590         0.744023
 C        -0.523636         1.752981         1.666746
 C        -1.877249         2.094150         1.173065
 C        -2.154959         3.527138         0.598129
 C        -1.308115         2.959122        -0.578469
 C        -1.583074         1.467757        -0.262721
 O        -2.595291         1.048720         1.993182
 C        -1.890926        -0.064364         1.584074
 H         0.699467        -0.922896         1.093783
 H        -0.458748         1.753148         2.807387
 H         0.296909         2.410442         1.226497
 H        -3.163878         3.768931         0.240845
 H        -1.733703         4.301976         1.284293
 H        -1.768683         3.307550        -1.575619
 H        -0.161972         3.267669        -0.595505
 H        -2.325892         0.839426        -0.871246
 H        -1.474574        -0.598596         2.537465
 H        -2.574599        -0.781271         1.023217
