19
Iteration:  2265
 O         0.297085        -0.429290         0.425666
 C        -0.774155         0.492272         0.746786
 C        -0.465642         1.671971         1.577756
 C        -1.861940         2.072265         1.176608
 C        -2.226964         3.520713         0.653259
 C        -1.250581         3.078822        -0.533263
 C        -1.489140         1.519996        -0.204850
 O        -2.644555         1.144615         1.876374
 C        -1.940481        -0.139924         1.573714
 H         1.154096         0.168137         0.455478
 H        -0.153006         1.438551         2.595171
 H         0.324988         2.252951         1.215315
 H        -3.387019         3.514062         0.343726
 H        -1.938727         4.449046         1.088955
 H        -1.559631         3.322594        -1.561234
 H        -0.361826         3.381965        -0.222260
 H        -2.382351         1.240570        -0.788530
 H        -1.477949        -0.610517         2.504044
 H        -2.571033        -0.934113         1.017308
