19
Iteration:  2267
 O         0.295061        -0.429594         0.425301
 C        -0.745750         0.492395         0.746953
 C        -0.469552         1.664794         1.598664
 C        -1.853478         2.086174         1.157876
 C        -2.225677         3.521077         0.636804
 C        -1.273683         3.092048        -0.527442
 C        -1.496301         1.510986        -0.214738
 O        -2.643060         1.140151         1.875298
 C        -1.940347        -0.146241         1.589000
 H         1.056415         0.099909         0.483481
 H        -0.217697         1.417174         2.633288
 H         0.411965         2.309727         1.195187
 H        -3.375750         3.448756         0.359848
 H        -1.841274         4.458300         1.187917
 H        -1.603036         3.277778        -1.543207
 H        -0.285139         3.443867        -0.216730
 H        -2.445559         1.272866        -0.823533
 H        -1.526744        -0.570468         2.426624
 H        -2.566281        -0.919962         1.002467
