19
Iteration:   130charge 0 multiplicity 1
 O         0.246948        -0.421495         0.252846
 C        -0.694197         0.533349         0.793915
 C        -0.371023         1.756398         1.800566
 C        -1.880517         2.093875         1.197721
 C        -2.169361         3.476084         0.544555
 C        -1.394436         2.995999        -0.725196
 C        -1.455958         1.462805        -0.119269
 O        -2.691173         1.140368         1.929669
 C        -1.906941        -0.054335         1.609710
 H         1.031836        -0.440346         0.854743
 H        -0.441863         1.552604         2.955277
 H         0.490542         2.333008         1.706241
 H        -3.236559         3.666445         0.275776
 H        -1.707031         4.353959         1.007824
 H        -1.985158         3.004403        -1.611304
 H        -0.467940         3.529269        -0.978785
 H        -2.176462         0.932928        -0.647809
 H        -1.412925        -0.530865         2.512058
 H        -2.537240        -0.807171         1.136715
