19
Iteration:  2106charge 0 multiplicity 1
 O         0.213213        -0.415436         0.312919
 C        -0.643616         0.509930         0.843738
 C        -0.363322         1.721804         1.827967
 C        -1.848873         2.075594         1.248307
 C        -2.177653         3.440596         0.665350
 C        -1.381733         2.921121        -0.617428
 C        -1.509119         1.467768        -0.156830
 O        -2.730640         1.174896         1.757533
 C        -1.877357         0.041532         1.465474
 H         1.124875        -0.024169         0.191134
 H        -0.286449         1.560807         2.922777
 H         0.406330         2.445116         1.438241
 H        -3.175462         3.362082         0.363508
 H        -1.880446         4.281486         1.371310
 H        -1.720660         3.387518        -1.569196
 H        -0.263556         3.246652        -0.603370
 H        -2.394911         1.011004        -0.631859
 H        -1.542925        -0.551580         2.519147
 H        -2.390832        -0.746147         0.907603
