19
Iteration:  3011
 O         0.241730        -0.442004         0.473593
 C        -0.676834         0.513203         0.783696
 C        -0.376053         1.785472         1.703640
 C        -1.822371         2.053608         1.229824
 C        -2.269088         3.463335         0.622915
 C        -1.315593         3.051961        -0.622419
 C        -1.443121         1.561893        -0.181002
 O        -2.694363         1.101088         1.852977
 C        -1.927065        -0.103733         1.543922
 H         0.547322        -0.426292        -0.500693
 H        -0.164721         1.555321         2.737374
 H         0.289957         2.462161         1.172297
 H        -3.299417         3.383685         0.415382
 H        -1.874010         4.426687         1.012430
 H        -1.703171         3.354101        -1.581975
 H        -0.244662         3.505274        -0.663153
 H        -2.259328         1.104593        -0.676913
 H        -1.714131        -0.788149         2.399535
 H        -2.391353        -0.767673         0.865125
