19
Iteration:  4298charge 0 multiplicity 1
 O         0.187749        -0.413070         0.364519
 C        -0.729544         0.576674         0.824382
 C        -0.407512         1.811920         1.607214
 C        -1.874116         2.096011         1.188177
 C        -2.153738         3.522529         0.480493
 C        -1.346022         2.912133        -0.638023
 C        -1.603225         1.409597        -0.156020
 O        -2.638244         1.063090         1.993010
 C        -1.779412        -0.067405         1.621485
 H         1.121535        -0.010152         0.623438
 H        -0.147404         1.792930         2.728287
 H         0.275007         2.577958         1.210223
 H        -3.201695         3.681397         0.230066
 H        -1.888086         4.423393         1.013076
 H        -1.805788         3.326892        -1.515268
 H        -0.221443         3.221666        -0.698246
 H        -2.500945         0.921997        -0.670673
 H        -1.299737        -0.530433         2.522312
 H        -2.422864        -0.686100         1.066364
