19
Iteration:  4770
 O         0.303471        -0.342669         0.260240
 C        -0.673413         0.527070         0.741799
 C        -0.371222         1.781756         1.677670
 C        -1.845648         2.047475         1.174483
 C        -2.270493         3.374728         0.554054
 C        -1.336273         2.958187        -0.715676
 C        -1.542187         1.423547        -0.132171
 O        -2.669832         1.255733         2.039788
 C        -1.903311        -0.013452         1.677604
 H         0.464247        -0.944813         1.031124
 H        -0.173853         1.487913         2.688727
 H         0.418206         2.234198         1.067391
 H        -3.395464         3.380578         0.430745
 H        -1.827853         4.312449         0.985791
 H        -1.715424         2.864702        -1.764181
 H        -0.387885         3.303807        -0.616354
 H        -2.306425         1.083039        -0.771926
 H        -1.410657        -0.476382         2.571057
 H        -2.508176        -0.769174         1.203491
