19
Iteration:   414charge 0 multiplicity 1
 O         0.213264        -0.408868         0.171711
 C        -0.632874         0.625617         0.788048
 C        -0.449613         1.845101         1.806127
 C        -1.820097         2.070019         1.196295
 C        -2.209813         3.416257         0.608531
 C        -1.318918         2.872611        -0.681807
 C        -1.441777         1.488179        -0.132477
 O        -2.662027         1.128794         1.948968
 C        -1.936012        -0.037905         1.612292
 H         0.614538        -0.815694         0.879948
 H        -0.480323         1.719983         2.945755
 H         0.341721         2.528630         1.518048
 H        -3.260423         3.433069         0.351813
 H        -1.927756         4.365605         1.115987
 H        -1.728332         3.101296        -1.724143
 H        -0.396190         3.458959        -0.743111
 H        -2.266954         0.861449        -0.701690
 H        -1.559122        -0.546679         2.506839
 H        -2.462567        -0.716197         0.910739
