19
Iteration:  3787
 O         0.272764        -0.420709         0.364221
 C        -0.733018         0.607709         0.763770
 C        -0.436208         1.782812         1.692465
 C        -1.903752         2.080494         1.323875
 C        -2.074160         3.435410         0.523854
 C        -1.366141         2.952958        -0.687136
 C        -1.540568         1.446290        -0.173568
 O        -2.703893         1.091868         1.965362
 C        -1.836135        -0.057942         1.621439
 H         1.001418         0.098771        -0.126642
 H        -0.363223         1.763420         2.751877
 H         0.262410         2.480216         1.256778
 H        -3.212111         3.570478         0.345462
 H        -1.665427         4.292514         0.977398
 H        -1.797620         3.225029        -1.612173
 H        -0.365075         3.308939        -0.908230
 H        -2.394527         1.005682        -0.774291
 H        -1.497023        -0.601416         2.438767
 H        -2.410411        -0.596050         0.971826
