19
Iteration:  2156charge 0 multiplicity 1
 O         0.284770        -0.414405         0.462396
 C        -0.742488         0.531498         0.724822
 C        -0.472868         1.743325         1.566334
 C        -1.934265         2.048895         1.158568
 C        -2.197480         3.503512         0.682010
 C        -1.196511         3.045352        -0.490041
 C        -1.563798         1.478330        -0.226374
 O        -2.608510         1.134879         1.930444
 C        -1.934303        -0.117537         1.551531
 H         1.093820        -0.030203        -0.056764
 H        -0.388090         1.505552         2.671429
 H         0.245170         2.381901         1.181938
 H        -3.241208         3.540638         0.174152
 H        -1.917113         4.263646         1.355961
 H        -1.503862         3.344918        -1.510783
 H        -0.203925         3.319567        -0.508953
 H        -2.256213         1.028231        -0.986801
 H        -1.632322        -0.679682         2.311723
 H        -2.534429        -0.738736         0.850757
