19
Iteration:  3559charge 0 multiplicity 1
 O         0.264405        -0.413677         0.318142
 C        -0.682436         0.559122         0.769843
 C        -0.379242         1.759309         1.604746
 C        -1.906185         2.084034         1.198358
 C        -2.248731         3.422021         0.631659
 C        -1.305713         2.996269        -0.578070
 C        -1.472202         1.508500        -0.145290
 O        -2.659649         1.157140         1.876178
 C        -1.930665        -0.075328         1.626834
 H         1.004562        -0.525948         0.991670
 H        -0.107286         1.630335         2.666925
 H         0.430469         2.250754         1.167640
 H        -3.245555         3.289337         0.211568
 H        -2.078050         4.310083         1.247920
 H        -1.645594         3.189311        -1.603721
 H        -0.311855         3.282324        -0.608689
 H        -2.331368         1.161801        -0.760352
 H        -1.790678        -0.501118         2.568443
 H        -2.516486        -0.760831         1.069524
