19
Iteration:  2466
 O         0.354359        -0.345700         0.451829
 C        -0.727220         0.544304         0.719157
 C        -0.408371         1.720018         1.656196
 C        -1.980295         2.033626         1.160515
 C        -2.162825         3.424611         0.620808
 C        -1.217090         3.042973        -0.478271
 C        -1.547450         1.507449        -0.209098
 O        -2.715600         1.102147         1.909556
 C        -1.881921        -0.052467         1.483572
 H        -0.001100        -1.184466         0.141878
 H        -0.255013         1.625837         2.767148
 H         0.170951         2.490456         1.195767
 H        -3.160807         3.725628         0.430429
 H        -1.716309         4.293713         1.249174
 H        -1.387233         3.393689        -1.442559
 H        -0.202138         3.487695        -0.486807
 H        -2.339569         0.978042        -0.855485
 H        -1.540142        -0.619470         2.302328
 H        -2.700246        -0.673034         0.846534
