19
Iteration:  2403
 O         0.294220        -0.380535         0.346556
 C        -0.658661         0.587820         0.732065
 C        -0.400700         1.713548         1.856281
 C        -1.907005         2.074146         1.257214
 C        -2.181015         3.557926         0.614533
 C        -1.277705         2.979465        -0.613252
 C        -1.465720         1.520871        -0.167885
 O        -2.737484         1.062621         1.858980
 C        -1.898432        -0.088212         1.479735
 H        -0.160115        -1.191840         0.173015
 H        -0.144800         1.529934         2.985437
 H         0.260327         2.465646         1.580290
 H        -3.169599         3.793258         0.266554
 H        -1.862784         4.569675         1.087668
 H        -1.909477         3.107837        -1.593290
 H        -0.205574         3.361822        -0.716363
 H        -2.157282         1.021444        -0.819555
 H        -1.665538        -0.694666         2.384363
 H        -2.434582        -0.754753         0.821704
