19
Iteration:  3785charge 0 multiplicity 1
 O         0.270465        -0.419044         0.358286
 C        -0.739677         0.622150         0.791943
 C        -0.435439         1.777922         1.686295
 C        -1.905615         2.102456         1.326276
 C        -2.074217         3.444301         0.525133
 C        -1.354056         2.939292        -0.686505
 C        -1.561772         1.441918        -0.184361
 O        -2.705198         1.089454         1.957646
 C        -1.815402        -0.061472         1.609142
 H         0.988828        -0.005239        -0.021736
 H        -0.307530         1.689119         2.786152
 H         0.228871         2.462194         1.243275
 H        -3.288565         3.615133         0.372627
 H        -1.670677         4.327218         1.002547
 H        -1.818458         3.271415        -1.671587
 H        -0.371664         3.288945        -0.872845
 H        -2.366840         0.929131        -0.735043
 H        -1.429818        -0.646135         2.482033
 H        -2.393838        -0.596757         0.913648
