19
Iteration:  4668
 O         0.281857        -0.425910         0.297173
 C        -0.669701         0.573550         0.767380
 C        -0.292382         1.773903         1.605135
 C        -1.854724         2.105249         1.256488
 C        -2.202486         3.424244         0.489668
 C        -1.384527         2.910037        -0.685428
 C        -1.516247         1.448011        -0.138682
 O        -2.697657         1.195813         2.032017
 C        -1.932552        -0.048496         1.647502
 H         0.794081        -0.477650         1.048436
 H        -0.072224         1.628080         2.688215
 H         0.336642         2.585529         1.290235
 H        -3.221064         3.181570         0.304227
 H        -2.221788         4.297905         1.110191
 H        -1.793871         3.262488        -1.644270
 H        -0.333552         3.448099        -0.752375
 H        -2.438061         1.003309        -0.679718
 H        -1.596251        -0.565935         2.512036
 H        -2.584027        -0.653546         0.911379
