19
Iteration:  4540charge 0 multiplicity 1
 O         0.227958        -0.440981         0.307101
 C        -0.677201         0.530801         0.804617
 C        -0.364471         1.844779         1.634950
 C        -1.879202         2.079147         1.214899
 C        -2.211570         3.444241         0.542798
 C        -1.411264         2.959093        -0.664630
 C        -1.533282         1.455983        -0.180803
 O        -2.623071         1.156116         2.001668
 C        -1.827992        -0.015665         1.637085
 H         0.811378        -0.790360         1.069660
 H        -0.319642         1.685295         2.734191
 H         0.387943         2.476055         1.147827
 H        -3.182780         3.606568         0.067382
 H        -1.835291         4.428134         0.968334
 H        -1.948080         3.036928        -1.617481
 H        -0.389383         3.196883        -0.698477
 H        -2.272907         0.897052        -0.732529
 H        -1.588456        -0.646378         2.551044
 H        -2.497294        -0.644156         1.064262
