19
Iteration:  4439charge 0 multiplicity 1
 O         0.319231        -0.378135         0.262665
 C        -0.696907         0.557546         0.729547
 C        -0.314866         1.772200         1.632270
 C        -1.904269         2.126556         1.233076
 C        -2.204495         3.428042         0.515155
 C        -1.345716         2.845851        -0.710927
 C        -1.551080         1.455806        -0.161432
 O        -2.736041         1.165181         2.043132
 C        -1.903037        -0.037504         1.683247
 H         1.061277        -0.350803         0.961962
 H         0.005517         1.706343         2.699519
 H         0.428033         2.436443         1.158373
 H        -3.254686         3.573581         0.448342
 H        -1.813886         4.307282         1.229874
 H        -1.804144         3.218946        -1.572997
 H        -0.272535         3.231475        -0.638238
 H        -2.434271         0.896270        -0.637125
 H        -1.519178        -0.466653         2.646274
 H        -2.702878        -0.662332         1.115450
