19
Iteration:  3942charge 0 multiplicity 1
 O         0.296214        -0.333391         0.330969
 C        -0.643979         0.596640         0.740982
 C        -0.497505         1.786639         1.702592
 C        -1.892760         2.092368         1.187237
 C        -2.143455         3.478255         0.598560
 C        -1.272627         2.972255        -0.664642
 C        -1.585350         1.397447        -0.146095
 O        -2.691271         1.087685         2.003398
 C        -1.829840        -0.041222         1.557356
 H        -0.023890        -1.294853         0.467200
 H        -0.422551         1.575183         2.797091
 H         0.364307         2.386731         1.426876
 H        -3.139050         3.682785         0.078220
 H        -1.923003         4.452274         1.180231
 H        -1.821892         3.187329        -1.568817
 H        -0.155504         3.196806        -0.602575
 H        -2.421816         0.905150        -0.778339
 H        -1.364750        -0.566844         2.341947
 H        -2.397545        -0.709499         0.960068
