19
Iteration:  3978
 O         0.338899        -0.368116         0.355898
 C        -0.669053         0.455878         0.833814
 C        -0.343598         1.787653         1.615394
 C        -1.816942         2.114120         1.169988
 C        -2.290592         3.403100         0.603053
 C        -1.319829         3.054972        -0.633806
 C        -1.514618         1.413273        -0.128306
 O        -2.682465         1.170371         1.895205
 C        -1.953114        -0.052954         1.633309
 H        -0.139607        -1.107070        -0.146135
 H        -0.264518         1.578015         2.763362
 H         0.462292         2.428734         1.192941
 H        -3.305654         3.297509         0.243225
 H        -2.112071         4.362039         1.295453
 H        -1.538837         3.687238        -1.636326
 H        -0.294044         3.425125        -0.473669
 H        -2.428743         0.881230        -0.594389
 H        -1.504538        -0.484421         2.504207
 H        -2.494090        -0.747500         1.075291
