19
Iteration:  3590
 O         0.237705        -0.419301         0.324101
 C        -0.630672         0.612026         0.770681
 C        -0.462579         1.840271         1.689921
 C        -1.899551         2.075220         1.219668
 C        -2.179451         3.406118         0.571842
 C        -1.351062         2.977401        -0.629245
 C        -1.468197         1.509768        -0.205782
 O        -2.631706         1.126421         1.986068
 C        -1.849072        -0.056465         1.558136
 H         0.185776        -1.173738         0.900520
 H        -0.364205         1.542004         2.735561
 H         0.402217         2.354583         1.337189
 H        -3.285717         3.431557         0.385407
 H        -2.031446         4.294983         1.008110
 H        -1.741309         3.317486        -1.612914
 H        -0.364869         3.168605        -0.428711
 H        -2.264401         0.913180        -0.813645
 H        -1.748787        -0.612679         2.466342
 H        -2.406795        -0.648735         0.717312
