19
Iteration:  1619charge 0 multiplicity 1
 O         0.191310        -0.356728         0.249961
 C        -0.626878         0.553354         0.796787
 C        -0.375513         1.804541         1.693902
 C        -1.879940         2.137019         1.275455
 C        -2.175331         3.461654         0.620591
 C        -1.239347         2.979519        -0.553668
 C        -1.541804         1.452201        -0.131644
 O        -2.726442         1.094735         1.887909
 C        -1.861056        -0.150191         1.484477
 H         0.643264        -0.941680         0.885606
 H        -0.440729         1.546370         2.831054
 H         0.269208         2.562912         1.385804
 H        -3.359807         3.681808         0.344619
 H        -1.875978         4.438903         1.080883
 H        -1.579146         3.242973        -1.651970
 H        -0.206808         3.409415        -0.487140
 H        -2.456447         0.908832        -0.693821
 H        -1.659329        -0.534330         2.474507
 H        -2.390333        -0.713933         0.750118
