19
Iteration:  4614
 O         0.330480        -0.395574         0.271716
 C        -0.742338         0.567248         0.769991
 C        -0.456429         1.774889         1.613719
 C        -1.939704         2.082140         1.210632
 C        -2.165586         3.402696         0.538373
 C        -1.292121         2.908017        -0.674183
 C        -1.589461         1.446289        -0.191631
 O        -2.666752         1.169362         2.009265
 C        -1.815221         0.023858         1.721095
 H         0.427262        -1.003635         0.948348
 H        -0.161205         1.707747         2.686342
 H         0.214066         2.440372         1.099262
 H        -3.252907         3.480212         0.407768
 H        -1.800389         4.400219         1.137614
 H        -1.793763         3.166730        -1.599866
 H        -0.262243         3.458976        -0.604755
 H        -2.306213         0.985837        -0.959828
 H        -1.287592        -0.330910         2.579283
 H        -2.403033        -0.879464         1.312086
