19
Iteration:  2146
 O         0.259803        -0.463215         0.420390
 C        -0.712696         0.553693         0.751840
 C        -0.484453         1.745910         1.663792
 C        -1.955037         2.073963         1.133676
 C        -2.158137         3.471723         0.639696
 C        -1.196125         3.121298        -0.593781
 C        -1.537345         1.521853        -0.249908
 O        -2.648140         1.047065         2.010507
 C        -1.912889        -0.123250         1.538788
 H         1.042846         0.094009         0.187182
 H        -0.087250         1.704360         2.706475
 H         0.210918         2.341772         1.173779
 H        -3.255736         3.640784         0.332877
 H        -1.874086         4.344309         1.144163
 H        -1.616411         3.426550        -1.590161
 H        -0.238842         3.405987        -0.340852
 H        -2.188781         0.941509        -0.975555
 H        -1.703515        -0.636492         2.333544
 H        -2.615163        -0.728987         0.893147
