19
Iteration:  3087
 O         0.321642        -0.335897         0.322337
 C        -0.706512         0.557754         0.751885
 C        -0.459678         1.764802         1.674381
 C        -1.917288         2.091185         1.275638
 C        -2.112870         3.531613         0.604451
 C        -1.297525         2.865768        -0.636521
 C        -1.559456         1.468372        -0.140462
 O        -2.717829         1.139151         1.883140
 C        -1.916065        -0.116736         1.557333
 H         1.163657        -0.281621         0.666747
 H        -0.416673         1.539673         2.770339
 H         0.306753         2.465972         1.459646
 H        -3.106712         3.671807         0.370828
 H        -1.771439         4.260848         1.271399
 H        -1.680804         2.966392        -1.670789
 H        -0.204423         3.142618        -0.513017
 H        -2.323625         0.935170        -0.707482
 H        -1.559163        -0.495663         2.532245
 H        -2.457514        -0.741866         0.848622
