19
Iteration:  4651
 O         0.201706        -0.459685         0.299520
 C        -0.672924         0.563390         0.818472
 C        -0.400045         1.867182         1.655442
 C        -1.858941         2.118953         1.223103
 C        -2.275534         3.392864         0.580979
 C        -1.315993         2.913131        -0.661507
 C        -1.533488         1.460429        -0.132039
 O        -2.626839         1.168458         1.975000
 C        -1.826044        -0.003636         1.571639
 H         0.759519        -0.786148         0.905502
 H        -0.126070         1.760635         2.698946
 H         0.246535         2.441001         0.936734
 H        -3.392513         3.472306         0.246319
 H        -1.782902         4.405409         0.922105
 H        -1.825550         2.886354        -1.662252
 H        -0.375655         3.307181        -0.684091
 H        -2.218737         0.872322        -0.653079
 H        -1.465301        -0.500531         2.539418
 H        -2.439639        -0.677571         1.047825
