19
Iteration:  1024charge 0 multiplicity 1
 O         0.286712        -0.371093         0.257277
 C        -0.668201         0.539847         0.787233
 C        -0.375688         1.790515         1.788209
 C        -1.841554         2.093680         1.196553
 C        -2.151473         3.570260         0.610333
 C        -1.432561         2.982274        -0.660423
 C        -1.503393         1.417837        -0.179876
 O        -2.650754         1.115908         1.871094
 C        -1.922421        -0.137877         1.620149
 H         0.558882        -0.969888         0.993812
 H        -0.497737         1.558740         2.867156
 H         0.442909         2.395198         1.561930
 H        -3.202560         3.681934         0.551644
 H        -1.676147         4.433547         1.036716
 H        -2.012895         3.239380        -1.658087
 H        -0.531864         3.388498        -0.856735
 H        -2.459509         0.961159        -0.723571
 H        -1.562773        -0.586671         2.525430
 H        -2.501533        -0.828406         1.054835
