19
Iteration:  4517
 O         0.242749        -0.402203         0.355558
 C        -0.721631         0.528647         0.711927
 C        -0.301746         1.845858         1.581530
 C        -1.838522         2.082569         1.194594
 C        -2.243525         3.416507         0.641442
 C        -1.320731         2.915860        -0.657648
 C        -1.609002         1.409181        -0.206166
 O        -2.649488         1.177995         1.925176
 C        -1.861753         0.000462         1.664386
 H         0.868570        -0.403323         1.032321
 H        -0.096053         1.715466         2.685670
 H         0.417799         2.334466         0.961941
 H        -3.336444         3.328608         0.498541
 H        -1.984150         4.397654         1.281627
 H        -1.669738         2.976189        -1.677784
 H        -0.355933         3.335433        -0.441688
 H        -2.449492         0.931205        -0.752844
 H        -1.622264        -0.288437         2.718450
 H        -2.518470        -0.860887         1.394274
