19
Iteration:  1260
 O         0.249856        -0.355034         0.335635
 C        -0.671922         0.542352         0.762148
 C        -0.430545         1.822284         1.563675
 C        -1.923980         2.097560         1.258960
 C        -2.120504         3.520968         0.565843
 C        -1.271526         3.010172        -0.573221
 C        -1.551637         1.484764        -0.195892
 O        -2.673814         0.997793         1.992759
 C        -1.926578        -0.114951         1.575098
 H         0.546917        -0.792064         1.251042
 H        -0.276900         1.850880         2.728501
 H         0.154192         2.536872         1.076156
 H        -3.218905         3.550044         0.158454
 H        -1.726514         4.502056         0.987056
 H        -1.469645         3.325868        -1.597430
 H        -0.214718         3.286304        -0.601184
 H        -2.374049         0.954451        -0.661291
 H        -1.475176        -0.784076         2.290842
 H        -2.420652        -0.807273         0.995497
