19
Iteration:  2346
 O         0.363658        -0.342551         0.398265
 C        -0.718516         0.512264         0.643222
 C        -0.481832         1.671841         1.668656
 C        -1.891233         2.051872         1.248756
 C        -2.181362         3.424568         0.648608
 C        -1.214982         3.017593        -0.545450
 C        -1.520252         1.496384        -0.187163
 O        -2.735559         1.141133         1.934637
 C        -1.946953        -0.072067         1.586057
 H         0.592657        -0.241212        -0.538180
 H        -0.561739         1.463323         2.760081
 H         0.337588         2.401550         1.296907
 H        -3.154060         3.515616         0.181157
 H        -1.761176         4.461866         1.079402
 H        -1.482419         3.381970        -1.538017
 H        -0.107797         3.402161        -0.486885
 H        -2.369768         1.156906        -0.864210
 H        -1.484059        -0.536619         2.396338
 H        -2.614652        -0.749479         1.005467
