19
Iteration:  4610charge 0 multiplicity 1
 O         0.332470        -0.358873         0.277418
 C        -0.737336         0.528581         0.733696
 C        -0.444100         1.768492         1.588635
 C        -1.962644         2.086047         1.252947
 C        -2.162620         3.445261         0.562330
 C        -1.294533         2.861924        -0.696990
 C        -1.559460         1.474264        -0.182663
 O        -2.672427         1.174895         1.999707
 C        -1.824535         0.024396         1.727554
 H         0.480555        -1.147946         1.019054
 H        -0.227695         1.711126         2.661679
 H         0.246842         2.384682         1.000589
 H        -3.232935         3.461532         0.431114
 H        -1.947924         4.222949         1.137748
 H        -1.773396         3.038576        -1.662675
 H        -0.268808         3.373765        -0.548531
 H        -2.312193         1.114708        -0.909940
 H        -1.349533        -0.386249         2.662822
 H        -2.368733        -0.824778         1.305227
