19
Iteration:  2761charge 0 multiplicity 1
 O         0.356019        -0.317061         0.415972
 C        -0.693430         0.448431         0.756985
 C        -0.408762         1.715851         1.655691
 C        -1.964149         2.072612         1.157244
 C        -2.249621         3.483736         0.649567
 C        -1.220527         3.042957        -0.582010
 C        -1.484626         1.473626        -0.154699
 O        -2.691742         1.144974         1.925256
 C        -1.934219        -0.105620         1.526552
 H         0.100899        -0.968604        -0.309661
 H        -0.363649         1.488884         2.687563
 H         0.520208         2.339531         1.381399
 H        -3.048905         3.678277         0.025240
 H        -1.944378         4.397164         1.275351
 H        -1.660773         3.341966        -1.487852
 H        -0.163237         3.420433        -0.317364
 H        -2.225639         1.135084        -0.941115
 H        -1.681520        -0.739433         2.541852
 H        -2.710262        -0.650023         0.940299
