19
Iteration:  3473charge 0 multiplicity 1
 O         0.356217        -0.371765         0.405404
 C        -0.713279         0.532044         0.768583
 C        -0.435510         1.703544         1.677061
 C        -1.888499         2.132238         1.201007
 C        -2.178093         3.452878         0.612860
 C        -1.296124         3.046968        -0.585776
 C        -1.466950         1.394551        -0.182337
 O        -2.743675         1.179015         1.909777
 C        -1.884503        -0.060058         1.542801
 H         0.222233        -0.709848        -0.421893
 H        -0.312497         1.441256         2.761648
 H         0.370022         2.294587         1.296796
 H        -3.257155         3.397623         0.369401
 H        -2.146023         4.494289         1.135702
 H        -1.778388         3.084935        -1.584235
 H        -0.252914         3.313676        -0.548432
 H        -2.307800         0.908513        -0.578328
 H        -1.582454        -0.501530         2.552402
 H        -2.411831        -0.793156         0.929785
