19
Iteration:  1188charge 0 multiplicity 1
 O         0.259354        -0.314445         0.287104
 C        -0.700178         0.523543         0.754898
 C        -0.406202         1.764601         1.663965
 C        -1.832423         2.138414         1.235969
 C        -2.189949         3.513500         0.616428
 C        -1.291501         2.887383        -0.617955
 C        -1.520784         1.484440        -0.115967
 O        -2.693257         1.082345         1.930935
 C        -1.936452        -0.050691         1.544714
 H         0.749563        -0.816847         1.055613
 H        -0.185674         1.609649         2.692080
 H         0.287564         2.454659         1.175432
 H        -3.203912         3.476371         0.367683
 H        -1.893213         4.412047         1.142044
 H        -1.606857         3.122783        -1.720588
 H        -0.302668         3.206525        -0.634714
 H        -2.331250         0.904781        -0.570681
 H        -1.643520        -0.603951         2.481370
 H        -2.416432        -0.914421         0.896357
