19
Iteration:  2922charge 0 multiplicity 1
 O         0.350049        -0.299103         0.312641
 C        -0.696237         0.550949         0.706437
 C        -0.475170         1.770232         1.747783
 C        -1.911901         2.107814         1.213521
 C        -2.165962         3.433500         0.585487
 C        -1.191642         2.981990        -0.579772
 C        -1.556018         1.489308        -0.098873
 O        -2.722088         1.056768         1.871930
 C        -1.912753        -0.070133         1.559453
 H        -0.139609        -1.161690         0.052310
 H        -0.500585         1.572017         2.844314
 H         0.374633         2.524303         1.390321
 H        -3.196403         3.515088         0.168898
 H        -1.674539         4.377075         1.153703
 H        -1.451656         3.326106        -1.534619
 H        -0.053729         3.003865        -0.214554
 H        -2.414990         1.122765        -0.696985
 H        -1.554629        -0.443495         2.572143
 H        -2.533254        -0.851410         1.060853
