19
Iteration:  2581
 O         0.271550        -0.532316         0.471834
 C        -0.658300         0.540260         0.769463
 C        -0.414644         1.767166         1.615479
 C        -1.950395         2.091112         1.189363
 C        -2.177597         3.491879         0.679840
 C        -1.284171         3.083281        -0.551662
 C        -1.519685         1.521422        -0.183176
 O        -2.689188         1.091143         1.858351
 C        -1.903508        -0.112990         1.471405
 H         1.123812        -0.236473         0.634837
 H        -0.283031         1.727116         2.660732
 H         0.312142         2.499997         1.094706
 H        -3.285619         3.703826         0.441973
 H        -1.912797         4.379555         1.184748
 H        -1.838131         3.346385        -1.518562
 H        -0.378856         3.546719        -0.792939
 H        -2.313826         1.180072        -0.769939
 H        -1.443429        -0.573794         2.463186
 H        -2.417694        -0.844262         0.794123
