19
Iteration:  3534
 O         0.298600        -0.404311         0.353911
 C        -0.707766         0.536377         0.684861
 C        -0.458515         1.764262         1.723788
 C        -1.914756         2.073725         1.161297
 C        -2.166869         3.491886         0.606754
 C        -1.276016         2.988457        -0.633386
 C        -1.544252         1.426162        -0.156218
 O        -2.692781         1.118969         1.951901
 C        -1.899221        -0.067283         1.591578
 H         1.061148         0.089590         0.476662
 H        -0.171806         1.508845         2.728389
 H         0.359336         2.451465         1.350872
 H        -3.231728         3.608875         0.288123
 H        -1.732952         4.227240         1.144532
 H        -1.608168         3.475439        -1.578362
 H        -0.219035         3.167979        -0.646848
 H        -2.459399         1.055069        -0.728691
 H        -1.543425        -0.418546         2.528818
 H        -2.559583        -0.901989         1.159693
