19
Iteration:  1676charge 0 multiplicity 1
 O         0.310814        -0.405728         0.434393
 C        -0.702493         0.540061         0.776654
 C        -0.440800         1.749497         1.655991
 C        -1.893040         2.048929         1.218612
 C        -2.137200         3.482802         0.710466
 C        -1.248866         2.977704        -0.557706
 C        -1.594398         1.527428        -0.207249
 O        -2.673679         1.079393         1.870359
 C        -1.926658        -0.064300         1.457153
 H         0.622124        -0.209064        -0.456434
 H        -0.265862         1.688781         2.671398
 H         0.385305         2.460344         1.354361
 H        -3.206199         3.744650         0.307390
 H        -1.823615         4.352377         1.322873
 H        -1.731374         3.295067        -1.457615
 H        -0.168811         3.246577        -0.473759
 H        -2.468141         1.114266        -0.750179
 H        -1.704508        -0.590455         2.428551
 H        -2.526868        -0.766220         0.896774
