19
Iteration:  2494charge 0 multiplicity 1
 O         0.281784        -0.325346         0.325421
 C        -0.722489         0.552521         0.784938
 C        -0.462865         1.701623         1.809965
 C        -1.885651         2.107908         1.192057
 C        -2.177578         3.483501         0.607388
 C        -1.157114         2.966992        -0.576618
 C        -1.497333         1.489724        -0.135236
 O        -2.732805         1.060903         1.864797
 C        -1.887340        -0.064605         1.542430
 H         0.131558        -0.562693        -0.660228
 H        -0.538823         1.608602         2.852042
 H         0.348203         2.505915         1.577397
 H        -3.289760         3.462348         0.332137
 H        -1.973470         4.409628         1.066947
 H        -1.594233         3.130829        -1.692975
 H        -0.177320         3.431802        -0.683453
 H        -2.283157         1.033450        -0.722244
 H        -1.498289        -0.631029         2.501868
 H        -2.437515        -0.743519         1.052206
