19
Iteration:  2950charge 0 multiplicity 1
 O         0.380128        -0.171262         0.368025
 C        -0.752843         0.500353         0.711894
 C        -0.445492         1.688319         1.642479
 C        -1.957603         2.064151         1.191922
 C        -2.115626         3.477361         0.637896
 C        -1.189805         2.952662        -0.552392
 C        -1.498474         1.470226        -0.155450
 O        -2.767657         1.120040         1.921288
 C        -1.948729        -0.149275         1.589018
 H         0.136519        -1.172396         0.076842
 H        -0.202343         1.603552         2.721608
 H         0.362906         2.279023         1.267016
 H        -3.142826         3.793960         0.271379
 H        -1.775076         4.342989         1.138111
 H        -1.757187         3.252863        -1.511969
 H        -0.176371         3.121049        -0.559638
 H        -2.167348         1.063492        -0.984048
 H        -1.573059        -0.434358         2.555736
 H        -2.617342        -0.802612         0.976979
