19
Iteration:  2105charge 0 multiplicity 1
 O         0.216441        -0.415925         0.313090
 C        -0.646984         0.514576         0.843737
 C        -0.359210         1.721215         1.821146
 C        -1.836218         2.074815         1.243522
 C        -2.178375         3.434598         0.667800
 C        -1.377972         2.930053        -0.616432
 C        -1.506099         1.468454        -0.159747
 O        -2.740783         1.174774         1.759430
 C        -1.883893         0.039360         1.475489
 H         1.164295         0.003625         0.166334
 H        -0.278572         1.576556         2.929624
 H         0.393888         2.420832         1.469609
 H        -3.175758         3.377930         0.371819
 H        -1.880550         4.248827         1.344620
 H        -1.740523         3.386825        -1.601354
 H        -0.285124         3.225629        -0.573564
 H        -2.419132         0.990288        -0.619682
 H        -1.545621        -0.538116         2.510912
 H        -2.401131        -0.766266         0.890821
