19
Iteration:  3373
 O         0.413508        -0.283943         0.386026
 C        -0.653871         0.521605         0.796690
 C        -0.428357         1.705335         1.651086
 C        -1.882209         2.064600         1.198400
 C        -2.116080         3.490510         0.606098
 C        -1.294250         2.994370        -0.648890
 C        -1.570719         1.450506        -0.165706
 O        -2.747212         1.110205         1.884037
 C        -1.985175        -0.076757         1.610559
 H        -0.003371        -1.009098         0.017318
 H        -0.092509         1.448952         2.640060
 H         0.361238         2.532033         1.526011
 H        -3.140724         3.752334         0.174393
 H        -1.769384         4.302824         1.384506
 H        -1.682458         3.209966        -1.752364
 H        -0.354555         3.351941        -0.499094
 H        -2.458802         1.107923        -0.728081
 H        -1.709709        -0.632378         2.610845
 H        -2.653029        -0.816375         1.088106
