19
Iteration:  1152charge 0 multiplicity 1
 O         0.285930        -0.363491         0.316130
 C        -0.665201         0.569579         0.765045
 C        -0.530768         1.789836         1.585334
 C        -1.927814         2.061695         1.125965
 C        -2.105997         3.490243         0.700709
 C        -1.254158         2.964557        -0.661063
 C        -1.545244         1.463592        -0.241547
 O        -2.652341         1.079764         2.053664
 C        -1.941741        -0.050807         1.599667
 H         0.843866        -0.738964         1.131840
 H        -0.338207         1.547395         2.664247
 H         0.173230         2.489024         1.229788
 H        -3.214673         3.683335         0.413817
 H        -1.820804         4.313077         1.454845
 H        -1.793283         3.118705        -1.713099
 H        -0.173655         3.239579        -0.606840
 H        -2.249852         1.025764        -0.918273
 H        -1.369024        -0.562718         2.417375
 H        -2.561964        -0.771850         0.879879
