19
Iteration:  4126charge 0 multiplicity 1
 O         0.228439        -0.391732         0.314731
 C        -0.694374         0.568756         0.762754
 C        -0.382443         1.801396         1.691672
 C        -1.912715         2.141784         1.169034
 C        -2.244478         3.413777         0.594703
 C        -1.294185         2.938515        -0.713175
 C        -1.502537         1.433037        -0.202679
 O        -2.620508         1.143103         2.035671
 C        -1.845027        -0.039074         1.568897
 H         0.647132        -0.738151         1.226968
 H        -0.304518         1.674475         2.775983
 H         0.223909         2.572781         1.297848
 H        -3.323494         3.413832         0.456893
 H        -1.966713         4.240062         1.132597
 H        -1.889242         3.051421        -1.546606
 H        -0.250020         3.371138        -0.720068
 H        -2.310484         1.106145        -0.750638
 H        -1.482675        -0.794313         2.348645
 H        -2.574944        -0.747679         1.074378
