19
Iteration:  4684
 O         0.305067        -0.337426         0.322673
 C        -0.703529         0.512844         0.751402
 C        -0.369089         1.737325         1.656794
 C        -1.818380         2.088175         1.176500
 C        -2.301184         3.405895         0.617623
 C        -1.332648         2.926930        -0.695555
 C        -1.611197         1.431595        -0.200672
 O        -2.583211         1.214690         1.988657
 C        -1.960946        -0.007758         1.659955
 H         1.075092        -0.550005         0.970381
 H        -0.176051         1.592762         2.732402
 H         0.573190         2.193163         1.233750
 H        -3.400615         3.564773         0.286088
 H        -1.841172         4.447420         0.909653
 H        -1.643308         2.973918        -1.749414
 H        -0.327591         3.135403        -0.643034
 H        -2.385936         0.940060        -0.711512
 H        -1.666711        -0.549552         2.626262
 H        -2.610329        -0.652071         1.131484
