19
Iteration:  1550charge 0 multiplicity 1
 O         0.333818        -0.377106         0.498022
 C        -0.782924         0.557625         0.677308
 C        -0.371676         1.785971         1.544423
 C        -1.866590         2.038104         1.219884
 C        -2.134086         3.459996         0.696139
 C        -1.274647         2.973418        -0.557224
 C        -1.598772         1.473085        -0.189739
 O        -2.675900         1.123270         1.914675
 C        -1.940378        -0.084238         1.539597
 H         0.537333        -0.504900        -0.387309
 H        -0.236786         1.364700         2.556896
 H         0.387078         2.591989         1.211788
 H        -3.163104         3.573284         0.334794
 H        -2.043049         4.425436         1.340736
 H        -1.692112         3.243050        -1.476717
 H        -0.195863         3.263340        -0.500547
 H        -2.470367         1.108341        -0.732896
 H        -1.542928        -0.477365         2.388797
 H        -2.492781        -0.709285         0.866384
