19
Iteration:  4494charge 0 multiplicity 1
 O         0.263238        -0.405096         0.307944
 C        -0.641701         0.532818         0.726806
 C        -0.441013         1.735944         1.583346
 C        -1.942199         2.088654         1.186561
 C        -2.178545         3.454207         0.501672
 C        -1.322325         2.959998        -0.660064
 C        -1.554795         1.411929        -0.157934
 O        -2.677383         1.211291         2.043229
 C        -1.821901        -0.035571         1.694035
 H         1.145748        -0.419837         0.883493
 H        -0.220509         1.506095         2.654910
 H         0.151421         2.485804         1.096199
 H        -3.249868         3.471961         0.370980
 H        -1.834507         4.390539         1.210224
 H        -1.860450         3.169827        -1.554589
 H        -0.304059         3.433480        -0.640199
 H        -2.427534         0.898007        -0.664473
 H        -1.508700        -0.479393         2.663098
 H        -2.453805        -0.863710         1.225790
