19
Iteration:  3233
 O         0.252325        -0.306477         0.332223
 C        -0.694169         0.581454         0.775242
 C        -0.455437         1.786437         1.693822
 C        -1.889088         2.045553         1.194628
 C        -2.099289         3.470493         0.592806
 C        -1.281148         2.982103        -0.639687
 C        -1.571439         1.396135        -0.180541
 O        -2.688951         1.106884         1.947972
 C        -1.906801        -0.103856         1.546557
 H         0.810332        -0.388747         1.097724
 H        -0.040438         1.656123         2.663308
 H         0.356826         2.460990         1.248649
 H        -3.138777         3.750433         0.305462
 H        -1.817184         4.297395         1.296516
 H        -1.737944         2.998556        -1.769037
 H        -0.225721         3.206014        -0.476248
 H        -2.338688         0.897533        -0.727131
 H        -1.560116        -0.644281         2.551489
 H        -2.574554        -0.672572         0.889598
