19
Iteration:  3735charge 0 multiplicity 1
 O         0.265360        -0.394336         0.357462
 C        -0.663902         0.499956         0.714895
 C        -0.358485         1.705778         1.604429
 C        -1.925007         2.009469         1.145449
 C        -2.240459         3.476675         0.635631
 C        -1.341269         3.051711        -0.661806
 C        -1.470700         1.415928        -0.207338
 O        -2.704284         1.225351         2.034369
 C        -1.896339        -0.082017         1.652426
 H         1.264977        -0.183195         0.666632
 H        -0.140645         1.616482         2.707986
 H         0.286419         2.434068         0.998252
 H        -3.217962         3.422150         0.346171
 H        -2.223159         4.454328         1.227189
 H        -1.632286         3.287714        -1.658900
 H        -0.209727         3.304240        -0.553236
 H        -2.187969         0.924254        -0.945508
 H        -1.562416        -0.365543         2.661296
 H        -2.621451        -0.855887         1.039779
