19
Iteration:   504
 O         0.274282        -0.364353         0.258521
 C        -0.633008         0.583895         0.788911
 C        -0.333152         1.787908         1.715249
 C        -1.917085         2.134150         1.286885
 C        -2.141595         3.447692         0.605795
 C        -1.352688         2.930834        -0.644835
 C        -1.514446         1.445723        -0.100291
 O        -2.760935         1.127402         1.903838
 C        -1.921857        -0.112649         1.550027
 H         0.737183        -0.699671         0.980542
 H        -0.059060         1.742530         2.710773
 H         0.390282         2.591090         1.160490
 H        -3.103208         3.529889         0.116978
 H        -1.845239         4.428980         1.032684
 H        -1.908464         3.220734        -1.602352
 H        -0.315431         3.263717        -0.837482
 H        -2.296873         0.861510        -0.658207
 H        -1.664720        -0.583415         2.435697
 H        -2.402110        -0.906796         1.003063
