19
Iteration:  2165charge 0 multiplicity 1
 O         0.289112        -0.390196         0.487095
 C        -0.723206         0.485320         0.679503
 C        -0.422503         1.762963         1.558354
 C        -1.888021         2.078922         1.166574
 C        -2.187050         3.445441         0.690778
 C        -1.232170         2.951736        -0.463761
 C        -1.539996         1.467964        -0.220587
 O        -2.671371         1.151001         1.901523
 C        -1.923939        -0.064406         1.494895
 H         0.899902         0.053789        -0.243215
 H        -0.489742         1.537212         2.646576
 H         0.395075         2.422246         1.341974
 H        -3.232446         3.771954         0.282340
 H        -2.078679         4.235203         1.420313
 H        -1.625207         3.279837        -1.395929
 H        -0.216759         3.261676        -0.355897
 H        -2.406930         1.226798        -0.807603
 H        -1.487239        -0.549423         2.428630
 H        -2.654712        -0.687247         0.960505
