19
Iteration:  4258
 O         0.304578        -0.408122         0.427434
 C        -0.649879         0.487290         0.762619
 C        -0.383168         1.810001         1.666901
 C        -1.852714         2.100544         1.159334
 C        -2.202809         3.432797         0.634978
 C        -1.441544         2.949529        -0.600767
 C        -1.521144         1.339223        -0.195661
 O        -2.640416         1.242119         1.916156
 C        -1.880661         0.012122         1.602944
 H         0.335889        -0.435909        -0.496179
 H        -0.317573         1.669005         2.784676
 H         0.399227         2.436131         1.202845
 H        -3.353822         3.418507         0.225959
 H        -1.932256         4.361254         1.140833
 H        -1.915389         3.032322        -1.599092
 H        -0.388711         3.303857        -0.606984
 H        -2.247852         0.778579        -0.721497
 H        -1.605458        -0.475247         2.575214
 H        -2.428480        -0.740748         1.001991
