19
Iteration:  3522
 O         0.275857        -0.380405         0.388188
 C        -0.713102         0.595098         0.758605
 C        -0.480445         1.731267         1.646891
 C        -1.958276         2.077686         1.233328
 C        -2.095124         3.475384         0.619061
 C        -1.273109         2.905814        -0.614014
 C        -1.569741         1.524532        -0.210544
 O        -2.658937         1.107012         1.925295
 C        -1.880588        -0.073767         1.594234
 H         1.175552         0.051794         0.038896
 H        -0.576611         1.501062         2.703792
 H         0.338219         2.485115         1.367696
 H        -3.074539         3.812747         0.245423
 H        -1.867350         4.281315         1.240881
 H        -1.774152         2.848851        -1.592439
 H        -0.216303         3.292889        -0.600288
 H        -2.296696         0.912817        -0.814158
 H        -1.390905        -0.608179         2.448571
 H        -2.563399        -0.771352         0.980521
