19
Iteration:  1846
 O         0.304547        -0.378544         0.457579
 C        -0.707498         0.563006         0.704115
 C        -0.438013         1.792376         1.677218
 C        -1.922860         2.056484         1.140077
 C        -2.183482         3.435749         0.688477
 C        -1.199428         2.986097        -0.531506
 C        -1.573196         1.474451        -0.211655
 O        -2.697831         1.125557         1.946463
 C        -1.910408        -0.045921         1.486437
 H         0.359017        -0.591930        -0.525756
 H        -0.355305         1.502563         2.821740
 H         0.450107         2.178318         1.260927
 H        -3.151166         3.372536         0.236594
 H        -1.790518         4.160545         1.420706
 H        -1.461921         3.230132        -1.619427
 H        -0.190886         3.386912        -0.339659
 H        -2.332495         1.159040        -0.927864
 H        -1.412557        -0.542362         2.354897
 H        -2.621494        -0.685148         0.785769
