19
Iteration:  3943charge 0 multiplicity 1
 O         0.291956        -0.338118         0.330350
 C        -0.648968         0.595623         0.744463
 C        -0.492191         1.790368         1.691421
 C        -1.898786         2.092610         1.199648
 C        -2.147141         3.467265         0.590716
 C        -1.271032         2.968579        -0.650044
 C        -1.578254         1.393748        -0.139437
 O        -2.691781         1.095132         1.999065
 C        -1.829603        -0.040794         1.554796
 H        -0.007327        -1.250425         0.445006
 H        -0.395738         1.545031         2.812090
 H         0.369551         2.413382         1.459174
 H        -3.115285         3.672711         0.061024
 H        -1.930266         4.472726         1.184801
 H        -1.860461         3.226385        -1.593486
 H        -0.152130         3.222313        -0.643742
 H        -2.402661         0.908419        -0.809538
 H        -1.357568        -0.560782         2.320882
 H        -2.372658        -0.699361         0.958738
