19
Iteration:  2967
 O         0.421367        -0.277707         0.414951
 C        -0.691716         0.555321         0.760130
 C        -0.491133         1.744300         1.697279
 C        -1.888569         2.037364         1.170775
 C        -2.102193         3.449153         0.678125
 C        -1.285107         2.959662        -0.595030
 C        -1.575818         1.442147        -0.261125
 O        -2.701190         1.125441         1.906216
 C        -1.969723        -0.040571         1.529256
 H         0.078799        -1.054261        -0.199950
 H        -0.546054         1.500651         2.756656
 H         0.220470         2.553729         1.339069
 H        -3.120348         3.613566         0.426875
 H        -1.541726         4.126054         1.482764
 H        -1.619305         3.145971        -1.584192
 H        -0.206421         3.411551        -0.443035
 H        -2.403027         0.983910        -0.736786
 H        -1.679756        -0.656141         2.448277
 H        -2.664205        -0.684453         0.981011
