19
Iteration:  3280
 O         0.248076        -0.432593         0.380559
 C        -0.693243         0.577383         0.795629
 C        -0.323492         1.750162         1.648042
 C        -1.869704         2.046052         1.202997
 C        -2.215640         3.411137         0.627148
 C        -1.308705         2.968020        -0.642997
 C        -1.531028         1.477005        -0.233220
 O        -2.734299         1.162606         1.883446
 C        -1.895460        -0.045395         1.562478
 H         1.120143        -0.148996         0.919118
 H        -0.217530         1.607422         2.757576
 H         0.422161         2.444555         1.387989
 H        -3.358197         3.644883         0.409800
 H        -1.837821         4.317513         1.189339
 H        -1.718394         3.503968        -1.424720
 H        -0.230462         3.317222        -0.429705
 H        -2.396318         0.920340        -0.709684
 H        -1.458124        -0.443678         2.476442
 H        -2.520605        -0.794773         1.032240
