19
Iteration:  2604
 O         0.238954        -0.438345         0.422706
 C        -0.678019         0.588723         0.759863
 C        -0.353304         1.746977         1.733441
 C        -1.856631         2.085100         1.199885
 C        -2.190329         3.373089         0.706568
 C        -1.367964         2.988422        -0.582985
 C        -1.407852         1.441572        -0.227022
 O        -2.726786         1.139842         1.811681
 C        -1.959333        -0.001942         1.501889
 H         1.058264         0.040887         0.071973
 H        -0.311178         1.534378         2.813170
 H         0.431490         2.479954         1.404122
 H        -3.286682         3.524104         0.558667
 H        -1.909551         4.275380         1.257347
 H        -1.711887         3.401557        -1.611023
 H        -0.339107         3.291456        -0.622354
 H        -2.290848         1.006997        -0.660593
 H        -1.599696        -0.525350         2.507956
 H        -2.494496        -0.656045         0.791591
