19
Iteration:  2279
 O         0.266212        -0.455060         0.416171
 C        -0.685041         0.485443         0.726302
 C        -0.400897         1.695745         1.713656
 C        -1.843857         2.084894         1.128063
 C        -2.185026         3.457050         0.639161
 C        -1.317106         3.113902        -0.560209
 C        -1.551174         1.520129        -0.238990
 O        -2.679049         1.101547         1.885174
 C        -1.910086        -0.067945         1.562749
 H         1.179436        -0.129544         0.496323
 H        -0.524947         1.566203         2.789090
 H         0.520158         2.394369         1.407027
 H        -3.292773         3.616300         0.401505
 H        -1.972555         4.308510         1.445749
 H        -1.702227         3.421559        -1.527767
 H        -0.256411         3.557979        -0.659165
 H        -2.375980         1.007179        -0.875532
 H        -1.654868        -0.545547         2.421806
 H        -2.613548        -0.752182         0.989689
