19
Iteration:  4407
 O         0.273966        -0.377383         0.309830
 C        -0.731549         0.496769         0.790231
 C        -0.423170         1.793635         1.593002
 C        -1.883804         2.075694         1.149692
 C        -2.234153         3.406223         0.594258
 C        -1.359894         2.929413        -0.651805
 C        -1.524833         1.423454        -0.221848
 O        -2.649298         1.212565         1.998896
 C        -1.780268         0.011169         1.670390
 H         0.677084        -0.858504         1.084937
 H        -0.238413         1.766606         2.728459
 H         0.423714         2.249128         1.031646
 H        -3.244664         3.443487         0.357149
 H        -1.900650         4.212728         1.323255
 H        -1.764019         3.307271        -1.570825
 H        -0.319327         3.431295        -0.721838
 H        -2.340091         0.973745        -0.908361
 H        -1.510086        -0.425647         2.700482
 H        -2.542557        -0.828993         1.304482
