19
Iteration:  4134charge 0 multiplicity 1
 O         0.252773        -0.355042         0.329371
 C        -0.741573         0.540589         0.740138
 C        -0.423429         1.812507         1.697995
 C        -1.832117         2.073833         1.222360
 C        -2.196692         3.438285         0.582857
 C        -1.384646         2.914219        -0.648738
 C        -1.500523         1.450268        -0.236069
 O        -2.610468         1.198525         1.980035
 C        -1.839786        -0.093337         1.566525
 H         0.549140        -0.894477         1.127751
 H        -0.398087         1.688287         2.772733
 H         0.437665         2.454349         1.504376
 H        -3.310077         3.389911         0.350327
 H        -2.035805         4.444470         1.028816
 H        -1.901565         3.121010        -1.621147
 H        -0.312356         3.207042        -0.739198
 H        -2.388327         0.990703        -0.639857
 H        -1.477991        -0.522075         2.505373
 H        -2.426817        -0.739957         1.015728
