19
Iteration:  4914
 O         0.210417        -0.406890         0.304886
 C        -0.708582         0.535250         0.792854
 C        -0.325920         1.909492         1.628256
 C        -1.829973         2.093239         1.179782
 C        -2.251115         3.417318         0.498663
 C        -1.363734         2.895795        -0.641830
 C        -1.553590         1.444882        -0.166341
 O        -2.602767         1.163632         2.065156
 C        -1.904480        -0.014971         1.600199
 H         0.801821        -0.754161         1.040669
 H        -0.243098         1.664258         2.701731
 H         0.591105         2.382165         1.288830
 H        -3.352162         3.389619         0.273297
 H        -2.026476         4.456887         0.968213
 H        -1.574579         3.119850        -1.663170
 H        -0.305739         3.082511        -0.621869
 H        -2.155040         0.837032        -0.733493
 H        -1.720655        -0.735394         2.472779
 H        -2.507337        -0.650163         1.014440
