19
Iteration:  2387
 O         0.308501        -0.342903         0.305774
 C        -0.703789         0.534811         0.817538
 C        -0.499658         1.822675         1.715645
 C        -1.885357         2.092101         1.240815
 C        -2.118223         3.438371         0.582041
 C        -1.203924         3.021523        -0.561729
 C        -1.469726         1.517341        -0.100742
 O        -2.719513         1.060598         1.873665
 C        -1.933153        -0.100452         1.514800
 H        -0.180686        -1.026759        -0.295848
 H        -0.467666         1.618491         2.742705
 H         0.341631         2.503058         1.314926
 H        -3.185570         3.366117         0.262168
 H        -1.817410         4.234838         1.237932
 H        -1.638868         3.190568        -1.483608
 H        -0.183180         3.389350        -0.412834
 H        -2.345239         1.026667        -0.646937
 H        -1.571762        -0.605888         2.411476
 H        -2.619576        -0.824609         0.862113
