19
Iteration:  3611
 O         0.322728        -0.337983         0.332645
 C        -0.723736         0.556924         0.767068
 C        -0.396383         1.787456         1.694798
 C        -1.897672         2.107991         1.218302
 C        -2.196158         3.489368         0.577021
 C        -1.276432         2.979040        -0.644693
 C        -1.539290         1.419491        -0.158409
 O        -2.651811         1.105616         1.975587
 C        -1.884115        -0.075531         1.562238
 H         0.134393        -1.381678         0.423761
 H        -0.422395         1.775726         2.785456
 H         0.357125         2.498461         1.315049
 H        -3.300526         3.650370         0.265840
 H        -1.939835         4.326158         1.129979
 H        -1.735657         2.904932        -1.666531
 H        -0.284699         3.383885        -0.668060
 H        -2.432022         1.073864        -0.799859
 H        -1.525503        -0.603076         2.486903
 H        -2.628616        -0.815078         0.963571
