19
Iteration:  2168
 O         0.298608        -0.396127         0.483146
 C        -0.725479         0.504995         0.669513
 C        -0.411924         1.761170         1.583265
 C        -1.876792         2.092378         1.158075
 C        -2.186408         3.425908         0.703719
 C        -1.234770         2.936867        -0.477514
 C        -1.531009         1.472459        -0.220570
 O        -2.703723         1.144659         1.896064
 C        -1.906890        -0.043055         1.489446
 H         0.808686         0.064196        -0.276104
 H        -0.351835         1.588426         2.707592
 H         0.421390         2.375261         1.419466
 H        -3.224542         3.698132         0.313697
 H        -1.965656         4.228483         1.365727
 H        -1.708073         3.267887        -1.440222
 H        -0.267546         3.236789        -0.248648
 H        -2.493037         1.188273        -0.760851
 H        -1.593628        -0.445939         2.304688
 H        -2.679369        -0.726153         1.039548
