19
Iteration:  2617charge 0 multiplicity 1
 O         0.277535        -0.396604         0.382257
 C        -0.647897         0.562542         0.793937
 C        -0.413614         1.701618         1.773313
 C        -1.844388         2.035352         1.242031
 C        -2.215851         3.469836         0.569695
 C        -1.271193         3.010693        -0.606189
 C        -1.496411         1.501092        -0.186921
 O        -2.723676         1.146285         1.882396
 C        -1.950962        -0.074419         1.498410
 H         0.754914        -0.040002        -0.331492
 H        -0.338897         1.399230         2.891552
 H         0.382850         2.341602         1.509465
 H        -3.219991         3.487707         0.307762
 H        -1.779968         4.350112         1.147754
 H        -1.867654         3.085031        -1.583285
 H        -0.351314         3.607728        -0.452247
 H        -2.242105         0.922825        -0.841960
 H        -1.584796        -0.572260         2.452563
 H        -2.548153        -0.792051         1.018039
