19
Iteration:   810charge 0 multiplicity 1
 O         0.205126        -0.368558         0.198331
 C        -0.598083         0.554068         0.783439
 C        -0.445208         1.746858         1.778796
 C        -1.805109         2.085990         1.209738
 C        -2.208844         3.416635         0.568168
 C        -1.361480         2.964784        -0.665994
 C        -1.486615         1.491190        -0.100619
 O        -2.669477         1.166134         1.919458
 C        -1.869979        -0.098566         1.612504
 H         0.831848        -0.647182         0.943166
 H        -0.574559         1.492563         2.894244
 H         0.360706         2.337073         1.656211
 H        -3.341655         3.511609         0.359825
 H        -1.996728         4.332205         1.078957
 H        -1.753187         3.096715        -1.617529
 H        -0.460626         3.612414        -0.879121
 H        -2.419275         1.086761        -0.656094
 H        -1.473625        -0.514219         2.563323
 H        -2.453469        -0.733042         0.893872
