19
Iteration:  4055charge 0 multiplicity 1
 O         0.289398        -0.391568         0.328565
 C        -0.700466         0.543458         0.728438
 C        -0.404486         1.798867         1.726325
 C        -1.859083         2.065425         1.252666
 C        -2.152234         3.501339         0.568594
 C        -1.333000         2.967589        -0.692335
 C        -1.569042         1.382865        -0.160922
 O        -2.731803         1.154215         1.947085
 C        -1.882059        -0.066725         1.649431
 H         1.211226         0.111225         0.210953
 H        -0.290116         1.481207         2.790288
 H         0.360794         2.379451         1.111746
 H        -3.222407         3.652981         0.344840
 H        -1.629241         4.464011         1.099656
 H        -2.006399         2.925485        -1.666467
 H        -0.341432         3.379830        -0.651751
 H        -2.343093         0.733581        -0.784434
 H        -1.515506        -0.544944         2.514589
 H        -2.362614        -0.833140         1.118125
