19
Iteration:   422charge 0 multiplicity 1
 O         0.223995        -0.397519         0.189927
 C        -0.648068         0.616864         0.822662
 C        -0.379259         1.857138         1.832817
 C        -1.813991         2.105943         1.203846
 C        -2.224693         3.375739         0.619878
 C        -1.294607         2.926982        -0.666228
 C        -1.518330         1.409278        -0.176370
 O        -2.684668         1.121790         1.880669
 C        -1.924985        -0.005740         1.607842
 H         0.695395        -0.835351         0.839022
 H        -0.172525         1.670901         3.001869
 H         0.329774         2.444764         1.432219
 H        -3.309394         3.405400         0.351191
 H        -1.969050         4.294621         1.112555
 H        -1.884023         2.970755        -1.512896
 H        -0.206747         3.269331        -0.605749
 H        -2.473714         0.934617        -0.649428
 H        -1.428776        -0.381716         2.434465
 H        -2.578916        -0.527251         0.886634
