19
Iteration:  4174
 O         0.332167        -0.302390         0.290221
 C        -0.661310         0.563934         0.776280
 C        -0.421989         1.829066         1.610849
 C        -1.880378         2.120012         1.251248
 C        -2.143792         3.427266         0.607182
 C        -1.309976         2.899434        -0.647663
 C        -1.531455         1.425644        -0.153126
 O        -2.781932         1.168025         1.974496
 C        -1.863618        -0.100967         1.649182
 H         0.256776        -1.245317         0.567575
 H        -0.153419         1.680063         2.683516
 H         0.258989         2.426269         0.922390
 H        -3.056662         3.550128         0.097972
 H        -1.811271         4.369516         1.171175
 H        -1.925792         2.975053        -1.602803
 H        -0.363886         3.334639        -0.737668
 H        -2.229802         0.924428        -0.958202
 H        -1.510908        -0.569562         2.574926
 H        -2.532846        -0.991520         1.282949
