19
Iteration:  2728
 O         0.294567        -0.400257         0.546709
 C        -0.664994         0.582969         0.692897
 C        -0.392692         1.791400         1.660689
 C        -1.906818         2.051689         1.237615
 C        -2.142614         3.422491         0.725039
 C        -1.333824         2.999899        -0.582651
 C        -1.496536         1.535357        -0.212666
 O        -2.687037         1.101404         1.865121
 C        -1.892200        -0.048721         1.379624
 H        -0.094930        -1.336388         0.240174
 H        -0.273159         1.481813         2.694120
 H         0.326653         2.605346         1.369096
 H        -3.104212         3.512936         0.333873
 H        -1.886841         4.387037         1.298568
 H        -1.874566         3.317907        -1.455086
 H        -0.293241         3.493674        -0.758204
 H        -2.320373         0.963795        -0.769611
 H        -1.656191        -0.797804         2.275748
 H        -2.596950        -0.597642         0.742600
