19
Iteration:  2839
 O         0.348300        -0.374625         0.498869
 C        -0.719695         0.620477         0.720050
 C        -0.418469         1.752171         1.724272
 C        -1.920499         2.045916         1.159198
 C        -2.122759         3.413816         0.653476
 C        -1.268599         3.013860        -0.588385
 C        -1.545291         1.513246        -0.267947
 O        -2.711798         1.114208         1.932049
 C        -1.934251        -0.138396         1.499446
 H         0.323023        -0.550360        -0.380379
 H        -0.176766         1.389610         2.685226
 H         0.328719         2.491802         1.375291
 H        -3.126407         3.711601         0.512079
 H        -1.734075         4.250643         1.197684
 H        -1.684577         3.316135        -1.571770
 H        -0.255393         3.393206        -0.574200
 H        -2.369378         1.095128        -0.913241
 H        -1.652846        -0.664385         2.482081
 H        -2.695731        -0.654460         0.860743
