19
Iteration:  1404
 O         0.278977        -0.362451         0.264673
 C        -0.689150         0.534505         0.812090
 C        -0.362386         1.786417         1.692081
 C        -1.842696         2.116092         1.298029
 C        -2.150077         3.415881         0.617183
 C        -1.354990         2.922111        -0.632855
 C        -1.531761         1.526596        -0.045282
 O        -2.692416         1.136637         1.839271
 C        -1.897012        -0.063648         1.511111
 H         0.390404        -1.101511         0.955105
 H        -0.310282         1.535312         2.827319
 H         0.263138         2.562438         1.143383
 H        -3.250149         3.551699         0.320886
 H        -1.648087         4.365775         1.057096
 H        -1.802872         2.928683        -1.723944
 H        -0.463379         3.383465        -0.860776
 H        -2.469506         1.174960        -0.429236
 H        -1.753548        -0.564186         2.487218
 H        -2.415836        -0.807951         0.889222
