19
Iteration:  1502
 O         0.199136        -0.439629         0.255032
 C        -0.639299         0.547092         0.769020
 C        -0.454671         1.760031         1.777077
 C        -1.819810         2.113791         1.240773
 C        -2.186883         3.494423         0.610520
 C        -1.303477         2.950952        -0.639058
 C        -1.484725         1.496334        -0.186554
 O        -2.690917         1.144674         1.927805
 C        -1.882379        -0.120790         1.584845
 H         1.193986        -0.316479         0.425967
 H        -0.637625         1.702513         2.886918
 H         0.511261         2.353079         1.413776
 H        -3.268142         3.536293         0.369204
 H        -1.966118         4.398007         1.101523
 H        -2.047105         3.174498        -1.492588
 H        -0.405124         3.441989        -0.882771
 H        -2.258695         0.978161        -0.739661
 H        -1.470087        -0.520968         2.594613
 H        -2.546048        -0.667130         0.877760
