19
Iteration:  2371charge 0 multiplicity 1
 O         0.308747        -0.280117         0.357135
 C        -0.704804         0.537119         0.739919
 C        -0.414104         1.712372         1.680912
 C        -1.928935         2.033819         1.167161
 C        -2.250312         3.454218         0.682905
 C        -1.128552         2.951739        -0.520581
 C        -1.535885         1.458598        -0.219256
 O        -2.727945         1.151539         1.909679
 C        -1.917005        -0.082977         1.588608
 H         0.075206        -0.636318        -0.598397
 H        -0.304766         1.563401         2.818283
 H         0.282643         2.357121         1.265153
 H        -3.234146         3.600623         0.216477
 H        -1.958174         4.330205         1.306764
 H        -1.182448         3.353028        -1.605117
 H        -0.077937         3.224462        -0.308338
 H        -2.257389         1.090803        -0.891499
 H        -1.677606        -0.679643         2.531477
 H        -2.420082        -0.656177         0.927331
