19
Iteration:   850
 O         0.299163        -0.344008         0.289291
 C        -0.685995         0.580078         0.729945
 C        -0.439102         1.845012         1.566183
 C        -1.919101         2.063418         1.169111
 C        -2.179232         3.396734         0.657244
 C        -1.263490         2.917744        -0.518547
 C        -1.574537         1.438731        -0.158048
 O        -2.664548         1.136474         1.948938
 C        -1.871663        -0.040351         1.570079
 H         0.555600        -0.917800         1.046393
 H        -0.283726         1.637614         2.598259
 H         0.350043         2.569535         1.170459
 H        -3.193793         3.516929         0.335426
 H        -1.839816         4.305043         1.206715
 H        -1.628126         3.191919        -1.587241
 H        -0.295586         3.198826        -0.312620
 H        -2.459602         1.031601        -0.523561
 H        -1.694732        -0.686678         2.483250
 H        -2.481354        -0.672482         0.934489
