19
Iteration:  2493
 O         0.282307        -0.327736         0.329352
 C        -0.721796         0.555197         0.775208
 C        -0.464350         1.707623         1.804345
 C        -1.880951         2.111810         1.187599
 C        -2.177797         3.485472         0.620511
 C        -1.154142         2.965210        -0.577597
 C        -1.504640         1.492853        -0.145532
 O        -2.730788         1.056291         1.869688
 C        -1.884100        -0.065233         1.539990
 H         0.114904        -0.571280        -0.591939
 H        -0.568635         1.589406         2.860740
 H         0.335197         2.492530         1.585045
 H        -3.284073         3.459981         0.335355
 H        -1.996824         4.413270         1.047991
 H        -1.541996         3.135917        -1.665449
 H        -0.213278         3.409069        -0.707776
 H        -2.256250         1.021667        -0.700855
 H        -1.526666        -0.613278         2.520755
 H        -2.446411        -0.762747         1.042877
