19
Iteration:  2050
 O         0.224866        -0.381564         0.473525
 C        -0.670359         0.597320         0.711773
 C        -0.469942         1.864732         1.623633
 C        -1.937118         2.044870         1.173211
 C        -2.141183         3.448038         0.643267
 C        -1.185307         2.963638        -0.528107
 C        -1.609970         1.464786        -0.221202
 O        -2.626357         1.072786         1.921073
 C        -1.895253        -0.109308         1.500178
 H         0.680490        -0.487277        -0.472474
 H        -0.476586         1.556822         2.711626
 H         0.228411         2.639150         1.618133
 H        -3.138227         3.740746         0.438093
 H        -1.777808         4.229863         1.300537
 H        -1.447263         3.349626        -1.583939
 H        -0.264474         3.197016        -0.092882
 H        -2.396275         1.042213        -0.921907
 H        -1.529641        -0.713772         2.466854
 H        -2.562441        -0.639197         0.754489
