19
Iteration:   763
 O         0.320751        -0.303858         0.329668
 C        -0.787978         0.494590         0.761573
 C        -0.440828         1.847894         1.591919
 C        -1.986045         2.052559         1.174535
 C        -2.140549         3.440227         0.657401
 C        -1.228271         2.999121        -0.645800
 C        -1.555531         1.465058        -0.175770
 O        -2.652028         1.116488         2.017750
 C        -1.892418        -0.170050         1.566295
 H         0.564597        -0.769614         1.070532
 H        -0.155868         1.724209         2.576310
 H         0.351612         2.445165         0.993935
 H        -3.146899         3.650574         0.371617
 H        -1.813904         4.346712         1.239386
 H        -1.577078         3.287877        -1.698607
 H        -0.252707         3.313126        -0.622022
 H        -2.316071         1.197807        -0.746349
 H        -1.413259        -0.700790         2.507500
 H        -2.579225        -0.783060         0.948629
