19
Iteration:  2370charge 0 multiplicity 1
 O         0.310753        -0.279373         0.359485
 C        -0.704351         0.538568         0.738961
 C        -0.410375         1.709860         1.682963
 C        -1.932754         2.031253         1.167768
 C        -2.254539         3.460652         0.677566
 C        -1.130935         2.948703        -0.515918
 C        -1.538107         1.459313        -0.227507
 O        -2.726028         1.153494         1.911899
 C        -1.920629        -0.081865         1.590626
 H         0.099555        -0.627515        -0.615605
 H        -0.298909         1.522419         2.821654
 H         0.294695         2.362955         1.238735
 H        -3.222699         3.564662         0.205307
 H        -1.929587         4.342375         1.353478
 H        -1.195172         3.339522        -1.593167
 H        -0.051253         3.221042        -0.280538
 H        -2.264479         1.069514        -0.917636
 H        -1.667792        -0.637157         2.515223
 H        -2.437224        -0.672173         0.924191
