19
Iteration:  3324charge 0 multiplicity 1
 O         0.249936        -0.469250         0.391739
 C        -0.683255         0.568247         0.775463
 C        -0.410693         1.816661         1.729985
 C        -1.899228         2.030536         1.148429
 C        -2.209359         3.470683         0.549768
 C        -1.277230         3.013975        -0.617732
 C        -1.519543         1.496710        -0.188261
 O        -2.682409         1.109679         1.977000
 C        -1.897843        -0.056446         1.587373
 H         0.798994        -0.201352        -0.486813
 H        -0.377641         1.678449         2.854381
 H         0.420243         2.420134         1.486687
 H        -3.369277         3.414322         0.297119
 H        -1.898147         4.349954         1.118883
 H        -1.419511         3.148843        -1.641280
 H        -0.167860         3.311004        -0.350870
 H        -2.240829         1.013142        -0.923275
 H        -1.645758        -0.568777         2.490548
 H        -2.435020        -0.634202         0.803275
