19
Iteration:  4299
 O         0.196716        -0.412876         0.360633
 C        -0.736441         0.589873         0.826847
 C        -0.409400         1.809341         1.599685
 C        -1.874762         2.099344         1.187943
 C        -2.154154         3.517225         0.487560
 C        -1.342498         2.906300        -0.628928
 C        -1.602811         1.408961        -0.160709
 O        -2.632437         1.063669         1.987258
 C        -1.787699        -0.066687         1.626486
 H         1.097643        -0.043000         0.631096
 H        -0.163154         1.779199         2.744428
 H         0.284796         2.575350         1.188439
 H        -3.270427         3.692209         0.226447
 H        -1.868512         4.428406         0.991416
 H        -1.811735         3.301379        -1.527858
 H        -0.200553         3.209633        -0.691463
 H        -2.502277         0.939552        -0.647075
 H        -1.312293        -0.536767         2.529367
 H        -2.410278        -0.673201         1.084582
