19
Iteration:  2108
 O         0.208233        -0.416575         0.313514
 C        -0.635952         0.508861         0.838481
 C        -0.372496         1.724963         1.837112
 C        -1.870485         2.080369         1.254537
 C        -2.171260         3.452029         0.662987
 C        -1.380990         2.909404        -0.617989
 C        -1.514455         1.468293        -0.149968
 O        -2.711515         1.171991         1.757054
 C        -1.866252         0.034375         1.456739
 H         1.035740        -0.078522         0.243348
 H        -0.301134         1.524592         2.899571
 H         0.410403         2.473930         1.390229
 H        -3.227422         3.349184         0.345467
 H        -1.895840         4.332410         1.384213
 H        -1.692333         3.364497        -1.509976
 H        -0.262401         3.280751        -0.657576
 H        -2.344211         1.039152        -0.653740
 H        -1.564822        -0.538582         2.474877
 H        -2.384796        -0.709862         0.927614
