19
Iteration:   509charge 0 multiplicity 1
 O         0.273105        -0.358207         0.247644
 C        -0.613403         0.584896         0.811987
 C        -0.342546         1.779719         1.704676
 C        -1.888010         2.112346         1.269940
 C        -2.120324         3.455719         0.574784
 C        -1.354523         2.966693        -0.639342
 C        -1.545658         1.474160        -0.085468
 O        -2.777854         1.137405         1.881328
 C        -1.905402        -0.136580         1.577521
 H         0.840398        -0.800601         0.979437
 H        -0.037147         1.699089         2.830602
 H         0.305047         2.390063         1.232551
 H        -3.204315         3.362823         0.238445
 H        -1.942497         4.443511         0.988766
 H        -1.890301         3.115639        -1.541670
 H        -0.342214         3.275114        -0.939709
 H        -2.311511         0.899748        -0.590963
 H        -1.596796        -0.612241         2.651862
 H        -2.524950        -0.812061         0.875587
