19
Iteration:  1171
 O         0.268161        -0.373120         0.329799
 C        -0.727976         0.639666         0.710827
 C        -0.417591         1.812204         1.692095
 C        -1.970203         2.039886         1.218524
 C        -2.115678         3.443256         0.593379
 C        -1.301449         2.939710        -0.571694
 C        -1.612545         1.410996        -0.210298
 O        -2.636814         1.131375         2.000041
 C        -1.817340        -0.085232         1.492468
 H         0.643371        -0.691724         1.222521
 H        -0.552743         1.551198         2.778512
 H         0.364366         2.589548         1.319862
 H        -3.177478         3.787600         0.245507
 H        -1.545146         4.264712         1.104848
 H        -1.637794         3.303702        -1.498751
 H        -0.118814         3.206899        -0.607005
 H        -2.407659         0.994073        -0.882120
 H        -1.572587        -0.728230         2.352730
 H        -2.561293        -0.549728         0.941670
