19
Iteration:  1271
 O         0.327551        -0.354884         0.353400
 C        -0.766283         0.561613         0.757705
 C        -0.442732         1.790815         1.629938
 C        -1.891553         2.106724         1.229784
 C        -2.153389         3.527288         0.609919
 C        -1.269151         2.961153        -0.666226
 C        -1.546210         1.488130        -0.181817
 O        -2.687384         1.029088         1.981408
 C        -1.917042        -0.104624         1.552137
 H         0.762132        -0.883740         1.008658
 H         0.046739         1.610660         2.665198
 H         0.260034         2.328588         1.081685
 H        -3.258182         3.800680         0.356809
 H        -1.792323         4.378205         1.267934
 H        -1.765162         3.143116        -1.614102
 H        -0.261155         3.322887        -0.533055
 H        -2.259412         1.025823        -0.854054
 H        -1.579607        -0.584931         2.466253
 H        -2.577885        -0.635462         0.980449
