19
Iteration:  2870
 O         0.394704        -0.474758         0.557908
 C        -0.726823         0.522322         0.709435
 C        -0.405585         1.771724         1.657328
 C        -1.849580         2.129810         1.217256
 C        -2.256601         3.486776         0.679764
 C        -1.316803         3.038180        -0.532827
 C        -1.504359         1.513357        -0.212796
 O        -2.677931         1.157462         1.832949
 C        -1.965667        -0.128864         1.462572
 H         0.304167        -0.789996        -0.451627
 H        -0.071106         1.492920         2.606005
 H         0.399726         2.336472         1.100219
 H        -3.268624         3.387827         0.426476
 H        -1.843902         4.459136         1.156762
 H        -1.722476         3.268392        -1.493267
 H        -0.326325         3.554589        -0.548229
 H        -2.355614         1.234739        -0.740282
 H        -1.649066        -0.806167         2.353734
 H        -2.642193        -0.793293         0.938927
