19
Iteration:   315charge 0 multiplicity 1
 O         0.195372        -0.426909         0.238194
 C        -0.681674         0.526554         0.810842
 C        -0.438947         1.870668         1.799115
 C        -1.840190         2.091932         1.233732
 C        -2.128856         3.422378         0.572983
 C        -1.386270         2.958888        -0.661215
 C        -1.496622         1.469987        -0.110472
 O        -2.666987         1.145119         1.917262
 C        -1.829690        -0.059665         1.528094
 H         0.878159        -0.515920         0.829213
 H        -0.423775         1.891672         2.997349
 H         0.273324         2.371408         1.308658
 H        -3.190140         3.403173         0.273877
 H        -1.850820         4.334530         1.105810
 H        -1.789918         3.156638        -1.700918
 H        -0.290522         3.178970        -0.829117
 H        -2.414645         0.983720        -0.625268
 H        -1.663152        -0.560604         2.462386
 H        -2.372872        -0.836220         0.971299
