19
Iteration:  2649charge 0 multiplicity 1
 O         0.294813        -0.319686         0.345455
 C        -0.697177         0.567398         0.776843
 C        -0.487583         1.818330         1.731594
 C        -1.907734         2.082993         1.203594
 C        -2.151243         3.456366         0.550074
 C        -1.127126         2.927067        -0.522054
 C        -1.612865         1.482245        -0.154568
 O        -2.696571         1.046557         1.957929
 C        -1.914840        -0.119941         1.505381
 H         0.198623        -0.294492        -0.629403
 H        -0.316872         1.633585         2.866295
 H         0.223427         2.496438         1.350919
 H        -3.135634         3.644466         0.119368
 H        -1.917379         4.419499         1.148125
 H        -1.301996         3.160863        -1.670476
 H        -0.094061         3.316166        -0.347147
 H        -2.324846         1.020204        -0.881046
 H        -1.547177        -0.588256         2.552691
 H        -2.589567        -0.748751         0.915523
