19
Iteration:  4873
 O         0.272098        -0.273769         0.250308
 C        -0.728611         0.561267         0.801504
 C        -0.373059         1.753139         1.613218
 C        -1.903404         2.135076         1.203065
 C        -2.099886         3.454353         0.567129
 C        -1.338593         2.826551        -0.677812
 C        -1.626992         1.335636        -0.171340
 O        -2.656849         1.153027         1.979886
 C        -1.897748        -0.049069         1.724604
 H         0.858752        -0.623787         1.000353
 H        -0.353314         1.966160         2.688569
 H         0.322524         2.514188         1.217436
 H        -3.158996         3.738583         0.307621
 H        -1.697516         4.446792         1.009816
 H        -1.664132         3.159661        -1.616890
 H        -0.300842         3.257263        -0.668841
 H        -2.391636         0.847960        -0.785989
 H        -1.382186        -0.477929         2.615590
 H        -2.477234        -0.834567         1.182343
