19
Iteration:  4524
 O         0.208018        -0.400026         0.356602
 C        -0.674629         0.547701         0.757864
 C        -0.379363         1.802510         1.582622
 C        -1.838763         2.104934         1.167045
 C        -2.246607         3.395047         0.591299
 C        -1.342709         2.927065        -0.696517
 C        -1.568371         1.400125        -0.155631
 O        -2.639393         1.210284         1.943123
 C        -1.851215        -0.058335         1.663094
 H         0.837906        -0.536228         1.005797
 H        -0.001262         1.799796         2.588903
 H         0.305585         2.477568         1.037123
 H        -3.333443         3.372852         0.800284
 H        -1.824908         4.288996         1.285326
 H        -1.505355         3.253772        -1.733388
 H        -0.357016         3.522048        -0.515222
 H        -2.538092         0.963170        -0.553634
 H        -1.463410        -0.378898         2.604642
 H        -2.418544        -0.890031         1.120968
