19
Iteration:  1559charge 0 multiplicity 1
 O         0.351675        -0.344204         0.474594
 C        -0.691205         0.511343         0.687031
 C        -0.396612         1.682377         1.583504
 C        -1.887639         2.062377         1.216248
 C        -2.217658         3.478563         0.664177
 C        -1.246123         3.016031        -0.564927
 C        -1.621105         1.450319        -0.208778
 O        -2.643672         1.122575         1.909899
 C        -1.975585        -0.049987         1.537623
 H         0.272852        -0.652047        -0.393788
 H        -0.140493         1.650958         2.597517
 H         0.467314         2.469255         1.271870
 H        -3.178392         3.676502         0.388088
 H        -1.801714         4.319664         1.300480
 H        -1.633204         3.364424        -1.465434
 H        -0.238405         3.373579        -0.417960
 H        -2.448367         1.097296        -0.709496
 H        -1.584020        -0.427359         2.490990
 H        -2.626535        -0.874115         1.172180
