19
Iteration:  2183
 O         0.302094        -0.407727         0.407021
 C        -0.687570         0.599174         0.758280
 C        -0.393510         1.720276         1.731655
 C        -1.868707         2.041237         1.256898
 C        -2.155763         3.432235         0.664857
 C        -1.300686         2.998743        -0.592402
 C        -1.545089         1.478320        -0.196856
 O        -2.758138         1.140680         1.829607
 C        -1.946970        -0.042764         1.541633
 H         0.802415        -0.240640        -0.482445
 H        -0.222567         1.408597         2.748275
 H         0.283428         2.445349         1.157127
 H        -3.194667         3.521281         0.518253
 H        -1.801917         4.384169         1.230781
 H        -1.489300         3.336887        -1.620358
 H        -0.156611         3.307197        -0.546591
 H        -2.298770         0.923695        -0.774586
 H        -1.458672        -0.528045         2.521582
 H        -2.410363        -0.747401         0.860196
