19
Iteration:  2864charge 0 multiplicity 1
 O         0.392184        -0.457123         0.575802
 C        -0.726885         0.531670         0.692406
 C        -0.428709         1.722388         1.596006
 C        -1.827232         2.163401         1.226884
 C        -2.234294         3.480063         0.697354
 C        -1.313024         3.027477        -0.521444
 C        -1.520050         1.495674        -0.191404
 O        -2.684087         1.138956         1.839370
 C        -1.923441        -0.082909         1.436280
 H         0.365037        -0.695865        -0.342434
 H        -0.171258         1.447427         2.697529
 H         0.385398         2.232369         1.173644
 H        -3.362918         3.518020         0.409015
 H        -1.990086         4.357767         1.192629
 H        -1.703429         3.368798        -1.559886
 H        -0.305912         3.400554        -0.588203
 H        -2.476061         0.994251        -0.710349
 H        -1.716705        -0.570030         2.336845
 H        -2.678825        -0.747968         0.886012
