19
Iteration:  1053
 O         0.325848        -0.328636         0.333766
 C        -0.717946         0.556095         0.677111
 C        -0.373671         1.790438         1.609158
 C        -1.936594         2.038016         1.268512
 C        -2.165958         3.434356         0.621423
 C        -1.296439         2.922026        -0.539358
 C        -1.554226         1.476456        -0.208873
 O        -2.665520         1.146666         1.961649
 C        -1.938953        -0.035018         1.546691
 H         0.377220        -1.087533         1.072594
 H        -0.103492         1.724378         2.662512
 H         0.310136         2.482076         1.017558
 H        -3.221294         3.375822         0.235367
 H        -1.805272         4.386233         1.110735
 H        -1.752881         3.314285        -1.479227
 H        -0.192216         3.277223        -0.632379
 H        -2.393742         1.024274        -0.678623
 H        -1.418762        -0.550790         2.425640
 H        -2.575218        -0.950885         1.201817
