19
Iteration:  2356charge 0 multiplicity 1
 O         0.379953        -0.326616         0.379464
 C        -0.762192         0.580950         0.688178
 C        -0.435002         1.683125         1.644217
 C        -1.956139         2.083669         1.189063
 C        -2.143401         3.417020         0.585228
 C        -1.215321         2.970946        -0.443839
 C        -1.516116         1.471001        -0.222835
 O        -2.711406         1.127526         1.942532
 C        -1.978048        -0.034332         1.549887
 H         0.441565        -0.352448        -0.530503
 H        -0.240182         1.269978         2.635597
 H         0.527051         2.345089         1.529664
 H        -3.184028         3.558844         0.239449
 H        -2.057572         4.344862         1.322885
 H        -1.520982         3.306385        -1.396159
 H        -0.118939         3.238835        -0.198256
 H        -2.252503         0.951682        -0.953734
 H        -1.492401        -0.392150         2.381309
 H        -2.740698        -0.885173         1.302285
