19
Iteration:  2559
 O         0.232099        -0.439193         0.476780
 C        -0.678420         0.560764         0.702999
 C        -0.465453         1.735369         1.659036
 C        -1.885874         2.058501         1.167737
 C        -2.152741         3.545936         0.624087
 C        -1.285314         3.069045        -0.599693
 C        -1.554133         1.524502        -0.271395
 O        -2.684893         1.031141         1.975724
 C        -1.908281        -0.143122         1.533771
 H         1.182286        -0.020771         0.616713
 H        -0.368550         1.512355         2.677901
 H         0.325767         2.493382         1.254957
 H        -3.275166         3.765774         0.499075
 H        -1.829041         4.356786         1.206404
 H        -1.326882         3.458260        -1.652731
 H        -0.342083         3.456157        -0.501621
 H        -2.161746         1.096174        -0.987334
 H        -1.349806        -0.788675         2.362854
 H        -2.473011        -0.755009         0.850462
