19
Iteration:  4060
 O         0.285604        -0.363383         0.324921
 C        -0.710563         0.572794         0.738817
 C        -0.386560         1.726204         1.732701
 C        -1.833758         2.051817         1.231400
 C        -2.130969         3.477531         0.529073
 C        -1.355090         2.951450        -0.674293
 C        -1.589384         1.420594        -0.205236
 O        -2.753470         1.163892         1.951861
 C        -1.860729        -0.055912         1.681576
 H         1.102702         0.026448         0.356037
 H        -0.144539         1.434729         2.744365
 H         0.343891         2.414327         1.324971
 H        -3.199059         3.577352         0.314195
 H        -1.804263         4.341210         0.940468
 H        -1.959666         3.114428        -1.519670
 H        -0.364303         3.477569        -0.625888
 H        -2.240659         0.832692        -0.741445
 H        -1.373970        -0.621351         2.562482
 H        -2.491789        -0.872670         1.168771
