19
Iteration:   848
 O         0.285520        -0.346085         0.283048
 C        -0.673373         0.592014         0.721755
 C        -0.436779         1.848906         1.580352
 C        -1.925678         2.060741         1.182927
 C        -2.187154         3.403117         0.661712
 C        -1.263595         2.911462        -0.547175
 C        -1.551451         1.436738        -0.146089
 O        -2.676677         1.145632         1.952134
 C        -1.869188        -0.062946         1.569250
 H         0.576965        -0.941054         1.087891
 H        -0.260997         1.680706         2.611745
 H         0.381292         2.559757         1.129924
 H        -3.190042         3.499358         0.328956
 H        -1.799138         4.322608         1.183316
 H        -1.621436         3.186954        -1.580056
 H        -0.297102         3.234268        -0.218963
 H        -2.553210         1.040053        -0.567774
 H        -1.664958        -0.674673         2.410161
 H        -2.442042        -0.710788         0.934126
