19
Iteration:  4137
 O         0.261270        -0.346032         0.329063
 C        -0.729558         0.542427         0.736137
 C        -0.431229         1.817238         1.697251
 C        -1.801787         2.061415         1.237559
 C        -2.190719         3.449214         0.579176
 C        -1.415385         2.913060        -0.636642
 C        -1.525212         1.450360        -0.229211
 O        -2.610007         1.202366         1.959384
 C        -1.851657        -0.095678         1.579729
 H         0.542143        -0.954177         1.115907
 H        -0.439120         1.618849         2.778873
 H         0.444377         2.359246         1.468554
 H        -3.235987         3.403742         0.266806
 H        -2.016568         4.381163         0.987229
 H        -1.798575         3.130235        -1.592576
 H        -0.344392         3.237566        -0.744854
 H        -2.327283         0.918142        -0.608421
 H        -1.448363        -0.424902         2.575086
 H        -2.463522        -0.754509         0.927090
