19
Iteration:  4760
 O         0.303233        -0.352982         0.242160
 C        -0.732327         0.531449         0.778851
 C        -0.405053         1.775143         1.686322
 C        -1.841756         2.135723         1.166373
 C        -2.199092         3.424634         0.584020
 C        -1.361709         2.897757        -0.710668
 C        -1.538701         1.407768        -0.183869
 O        -2.616095         1.183858         1.968448
 C        -1.909374        -0.020096         1.724460
 H         0.593061        -0.966216         0.881025
 H        -0.233632         1.633811         2.756785
 H         0.306101         2.568656         1.391900
 H        -3.264231         3.438210         0.176220
 H        -2.042684         4.385632         1.207078
 H        -1.828403         3.156849        -1.674955
 H        -0.394344         3.219720        -0.766398
 H        -2.330109         0.830977        -0.511410
 H        -1.409511        -0.354880         2.679531
 H        -2.546990        -0.764191         1.298448
