19
Iteration:  4978
 O         0.227067        -0.355361         0.325303
 C        -0.696142         0.546965         0.805516
 C        -0.478879         1.845735         1.602045
 C        -1.969165         2.099222         1.177846
 C        -2.102645         3.464960         0.553390
 C        -1.342885         2.869990        -0.675815
 C        -1.571975         1.409709        -0.153415
 O        -2.607489         1.143669         1.995005
 C        -1.787872         0.004478         1.634717
 H         0.528046        -1.123687         0.998953
 H        -0.319576         1.790170         2.686448
 H         0.318914         2.426697         1.130685
 H        -3.139786         3.620867         0.375895
 H        -1.706145         4.255801         1.177798
 H        -1.848279         2.965409        -1.657385
 H        -0.265829         3.136193        -0.618386
 H        -2.311853         0.995956        -0.895465
 H        -1.393245        -0.551081         2.560530
 H        -2.398724        -0.748793         1.143813
