19
Iteration:   374
 O         0.324464        -0.292597         0.345470
 C        -0.708783         0.516198         0.691605
 C        -0.402193         1.808233         1.550979
 C        -1.884488         2.107745         1.203972
 C        -2.175619         3.429227         0.637283
 C        -1.266579         2.922612        -0.615275
 C        -1.592788         1.495000        -0.186979
 O        -2.646239         1.090690         1.962595
 C        -1.955894        -0.091733         1.624045
 H         0.453875        -0.971352         1.134001
 H        -0.296518         1.666656         2.558261
 H         0.402028         2.630824         1.258219
 H        -3.241859         3.488039         0.395608
 H        -1.934109         4.330194         1.249323
 H        -1.559605         3.147048        -1.663401
 H        -0.253005         2.942899        -0.383754
 H        -2.407248         1.134896        -0.669952
 H        -1.562645        -0.406020         2.660646
 H        -2.630039        -0.710148         1.018865
