19
Iteration:  3431charge 0 multiplicity 1
 O         0.341321        -0.392161         0.392413
 C        -0.653054         0.485366         0.777771
 C        -0.430994         1.812831         1.621540
 C        -1.900994         2.092564         1.221500
 C        -2.252048         3.497697         0.581118
 C        -1.241885         2.998603        -0.561518
 C        -1.515426         1.453859        -0.157716
 O        -2.708784         1.120432         1.942112
 C        -1.882453        -0.074836         1.507188
 H        -0.191133        -1.280467         0.392987
 H        -0.297076         1.703298         2.727890
 H         0.238971         2.401199         1.094285
 H        -3.159008         3.670087         0.101719
 H        -2.080676         4.368530         1.245071
 H        -1.621929         3.370116        -1.524939
 H        -0.218552         3.456387        -0.373943
 H        -2.231622         1.052564        -0.816313
 H        -1.470769        -0.679345         2.420976
 H        -2.576811        -0.640037         0.866110
