19
Iteration:  3449charge 0 multiplicity 1
 O         0.326879        -0.361131         0.433308
 C        -0.719498         0.584714         0.714763
 C        -0.393473         1.717791         1.683569
 C        -1.874604         2.086072         1.151336
 C        -2.244713         3.351415         0.597175
 C        -1.238834         3.028322        -0.578671
 C        -1.507488         1.558043        -0.215923
 O        -2.642698         1.128247         1.903330
 C        -1.954027        -0.053178         1.606516
 H         0.009366        -1.258435        -0.029615
 H        -0.257193         1.499923         2.742505
 H         0.416868         2.494606         1.464781
 H        -3.425505         3.371926         0.523002
 H        -2.064478         4.402627         1.038075
 H        -1.596534         3.186162        -1.663165
 H        -0.284691         3.295090        -0.349779
 H        -2.337601         1.102305        -0.840076
 H        -1.676264        -0.567256         2.531854
 H        -2.547600        -0.805753         1.053519
