19
Iteration:   527charge 0 multiplicity 1
 O         0.283850        -0.309797         0.226622
 C        -0.713919         0.471278         0.800433
 C        -0.411549         1.700637         1.748114
 C        -1.810156         2.129827         1.235875
 C        -2.241239         3.434597         0.612005
 C        -1.348609         2.934190        -0.697766
 C        -1.484290         1.474991        -0.136681
 O        -2.669696         1.146437         1.862099
 C        -1.911297        -0.018181         1.643125
 H         0.767664        -0.809527         0.979137
 H        -0.372516         1.527213         2.806157
 H         0.421855         2.456766         1.447594
 H        -3.308547         3.504983         0.366876
 H        -1.839087         4.332033         1.089250
 H        -1.678195         3.082740        -1.742942
 H        -0.365062         3.457646        -0.609461
 H        -2.417443         1.137717        -0.567484
 H        -1.598834        -0.492585         2.554476
 H        -2.399864        -0.841563         1.147372
