19
Iteration:  2820charge 0 multiplicity 1
 O         0.316887        -0.317978         0.330936
 C        -0.679664         0.489424         0.800565
 C        -0.528653         1.788192         1.709236
 C        -1.962920         2.075943         1.212239
 C        -2.082923         3.531149         0.654681
 C        -1.245532         2.953558        -0.579360
 C        -1.413097         1.430858        -0.143138
 O        -2.737589         1.066218         1.917394
 C        -1.933749        -0.061632         1.551177
 H         0.142702        -0.551396        -0.552468
 H        -0.450787         1.757823         2.859657
 H         0.169037         2.456670         1.299497
 H        -3.157181         3.698151         0.219779
 H        -1.686708         4.354366         1.205559
 H        -1.662108         3.175232        -1.643309
 H        -0.290172         3.376414        -0.701106
 H        -2.115374         0.976933        -0.975932
 H        -1.571911        -0.641027         2.318863
 H        -2.502263        -0.799632         0.903409
