19
Iteration:  2035
 O         0.240734        -0.435364         0.423124
 C        -0.692276         0.628283         0.713627
 C        -0.437812         1.790425         1.749758
 C        -1.907825         2.072394         1.253048
 C        -2.167921         3.470887         0.639549
 C        -1.247219         2.939234        -0.557049
 C        -1.501201         1.485688        -0.167203
 O        -2.716142         1.077742         1.881999
 C        -1.879857        -0.042761         1.473778
 H         0.630383        -0.140365        -0.461373
 H        -0.186988         1.573042         2.769143
 H         0.303000         2.566234         1.314815
 H        -3.199148         3.500691         0.165060
 H        -1.827437         4.303433         1.212728
 H        -1.661041         3.208226        -1.535960
 H        -0.159478         3.177277        -0.608013
 H        -2.318480         0.997706        -0.743494
 H        -1.509301        -0.523873         2.311271
 H        -2.475984        -0.806870         0.798579
