19
Iteration:  3224
 O         0.285752        -0.314633         0.292861
 C        -0.704550         0.588989         0.785415
 C        -0.439789         1.748632         1.641108
 C        -1.880051         2.045095         1.244075
 C        -2.111600         3.478961         0.555986
 C        -1.278024         2.862647        -0.582925
 C        -1.571184         1.458008        -0.110249
 O        -2.708830         1.125370         1.915604
 C        -1.898886        -0.035429         1.552039
 H         0.767467        -0.568352         1.083458
 H        -0.398333         1.507317         2.713737
 H         0.139149         2.623668         1.270425
 H        -3.262478         3.362559         0.411925
 H        -1.662214         4.388414         1.065264
 H        -1.627685         3.194153        -1.610125
 H        -0.288680         3.417122        -0.569430
 H        -2.316074         0.895814        -0.709177
 H        -1.479081        -0.632037         2.435142
 H        -2.511721        -0.655181         0.904848
