19
Iteration:   669
 O         0.281325        -0.365843         0.293192
 C        -0.698502         0.603977         0.656252
 C        -0.502190         1.790826         1.626625
 C        -1.915301         2.070215         1.215750
 C        -2.124346         3.450849         0.578915
 C        -1.252748         2.939839        -0.577863
 C        -1.576029         1.452816        -0.222645
 O        -2.655400         1.083373         2.067152
 C        -1.865478        -0.017166         1.592804
 H         0.736894        -0.763253         1.163976
 H        -0.482302         1.351694         2.685526
 H         0.226790         2.566681         1.445871
 H        -3.143868         3.370603         0.088894
 H        -2.062611         4.361202         1.136943
 H        -1.437203         3.316438        -1.556856
 H        -0.141100         3.380983        -0.403307
 H        -2.392191         0.869466        -0.918305
 H        -1.514576        -0.522771         2.490991
 H        -2.605446        -0.639361         1.020743
