19
Iteration:  3561
 O         0.260937        -0.412525         0.324928
 C        -0.685018         0.551408         0.744994
 C        -0.381787         1.773336         1.619352
 C        -1.902942         2.078700         1.187713
 C        -2.268969         3.416275         0.627368
 C        -1.296869         2.982494        -0.580829
 C        -1.461384         1.505477        -0.129462
 O        -2.649922         1.156183         1.879484
 C        -1.938289        -0.064077         1.608210
 H         0.886177        -0.544271         0.971718
 H        -0.030287         1.590015         2.671764
 H         0.441497         2.285935         1.159038
 H        -3.263417         3.348025         0.219818
 H        -2.100068         4.384424         1.302963
 H        -1.743660         3.214050        -1.554913
 H        -0.218472         3.299008        -0.618102
 H        -2.270236         1.148711        -0.712460
 H        -1.765868        -0.511458         2.626419
 H        -2.506696        -0.768596         1.090707
