19
Iteration:  4073
 O         0.239831        -0.341130         0.325702
 C        -0.684273         0.553079         0.741749
 C        -0.363483         1.679183         1.671348
 C        -1.924634         2.096158         1.217604
 C        -2.177001         3.387370         0.588982
 C        -1.354635         2.934101        -0.701133
 C        -1.520320         1.496607        -0.185762
 O        -2.668262         1.153632         1.945386
 C        -1.866969        -0.018306         1.668158
 H         1.166221         0.053574         0.661069
 H        -0.414175         1.343811         2.731504
 H         0.346913         2.415706         1.396822
 H        -3.224315         3.342890         0.289313
 H        -1.920564         4.311184         1.121685
 H        -1.673876         3.163479        -1.660799
 H        -0.217933         3.052769        -0.766674
 H        -2.498914         1.141108        -0.663160
 H        -1.454342        -0.241497         2.699080
 H        -2.577543        -0.854602         1.200146
