19
Iteration:   455charge 0 multiplicity 1
 O         0.339246        -0.356015         0.318402
 C        -0.725683         0.509490         0.692668
 C        -0.421050         1.763750         1.613779
 C        -1.909449         2.109886         1.202210
 C        -2.232720         3.484339         0.575706
 C        -1.239546         3.011346        -0.606469
 C        -1.540045         1.477356        -0.205013
 O        -2.685564         1.076469         1.994931
 C        -1.937100        -0.053608         1.651630
 H         0.771083        -0.794722         1.150758
 H        -0.107586         1.582945         2.728173
 H         0.285303         2.309119         1.156460
 H        -3.319833         3.580440         0.373675
 H        -1.839514         4.334608         1.122958
 H        -1.546392         3.086093        -1.622040
 H        -0.170479         3.349956        -0.578949
 H        -2.398407         1.124621        -0.834794
 H        -1.464828        -0.615149         2.433567
 H        -2.619523        -0.846148         1.319409
