19
Iteration:   943
 O         0.285693        -0.368711         0.208609
 C        -0.725208         0.570344         0.767407
 C        -0.398435         1.743696         1.674483
 C        -1.934181         2.058282         1.194380
 C        -2.184725         3.476779         0.540298
 C        -1.282899         3.061513        -0.610365
 C        -1.491093         1.466875        -0.191254
 O        -2.679126         1.105086         2.016871
 C        -1.933641        -0.089943         1.683872
 H         0.801489        -0.618388         0.966779
 H        -0.151427         1.514508         2.710355
 H         0.440949         2.356963         1.202133
 H        -3.249351         3.444924         0.165141
 H        -2.147667         4.326481         1.258441
 H        -1.685281         3.301293        -1.553552
 H        -0.103302         3.135574        -0.518479
 H        -2.217336         1.114417        -0.929905
 H        -1.427667        -0.624629         2.583684
 H        -2.582975        -0.913217         1.158703
