19
Iteration:   491charge 0 multiplicity 1
 O         0.259703        -0.348960         0.302250
 C        -0.715151         0.571158         0.748704
 C        -0.412635         1.843209         1.660509
 C        -1.893996         2.042565         1.228653
 C        -2.198998         3.478305         0.621569
 C        -1.291212         2.858019        -0.616991
 C        -1.494431         1.436643        -0.183768
 O        -2.679248         1.089399         1.965332
 C        -1.901124        -0.003591         1.540517
 H         0.753238        -0.711226         1.127750
 H        -0.220722         1.608734         2.698037
 H         0.311517         2.629497         1.240297
 H        -3.214708         3.834133         0.522072
 H        -1.650426         4.188167         1.283870
 H        -1.708930         3.007109        -1.686539
 H        -0.295844         3.278598        -0.521976
 H        -2.336352         0.890420        -0.801759
 H        -1.539151        -0.455271         2.356712
 H        -2.514747        -0.567006         0.867066
