19
Iteration:  1630
 O         0.269901        -0.408230         0.245150
 C        -0.704740         0.555007         0.755337
 C        -0.441300         1.779574         1.680563
 C        -1.862562         2.075147         1.194148
 C        -2.175029         3.502510         0.611738
 C        -1.218821         3.039129        -0.540034
 C        -1.525888         1.490102        -0.102378
 O        -2.708301         1.076819         1.912513
 C        -1.945248        -0.103585         1.566857
 H         0.941782        -0.423460         0.869718
 H        -0.200953         1.623549         2.786927
 H         0.341250         2.394879         1.338108
 H        -3.285793         3.511084         0.153380
 H        -1.952957         4.373274         1.260464
 H        -1.760779         3.260973        -1.525752
 H        -0.141613         3.291564        -0.555998
 H        -2.331325         0.990659        -0.780702
 H        -1.574653        -0.760284         2.330177
 H        -2.556462        -0.748154         0.963529
