19
Iteration:  4519
 O         0.225558        -0.398324         0.353317
 C        -0.706695         0.531228         0.716122
 C        -0.320782         1.837308         1.586979
 C        -1.840282         2.090988         1.187287
 C        -2.238249         3.422476         0.635814
 C        -1.316334         2.918883        -0.664919
 C        -1.606441         1.400246        -0.196495
 O        -2.646203         1.186024         1.929721
 C        -1.860690        -0.016635         1.653247
 H         0.946405        -0.445157         1.110962
 H        -0.063887         1.741842         2.679717
 H         0.405447         2.373727         0.944559
 H        -3.351770         3.317589         0.627004
 H        -1.994176         4.241399         1.217940
 H        -1.627860         3.043607        -1.766433
 H        -0.411822         3.392319        -0.452079
 H        -2.444491         0.954677        -0.677515
 H        -1.607309        -0.313343         2.759191
 H        -2.464580        -0.855420         1.363942
