19
Iteration:  3960charge 0 multiplicity 1
 O         0.282958        -0.343302         0.319177
 C        -0.691181         0.598282         0.744456
 C        -0.356649         1.800864         1.682530
 C        -1.908080         2.075613         1.245201
 C        -2.232952         3.402804         0.578071
 C        -1.269030         2.913918        -0.576605
 C        -1.464398         1.513605        -0.196164
 O        -2.689030         1.134751         1.933059
 C        -1.879941        -0.052371         1.598363
 H        -0.188118        -1.237604         0.244416
 H        -0.165941         1.643436         2.717322
 H         0.243794         2.575968         1.157943
 H        -3.307656         3.367863         0.391598
 H        -1.966090         4.265381         1.060602
 H        -1.742361         2.906750        -1.571902
 H        -0.281447         3.347062        -0.454810
 H        -2.160553         0.996287        -0.764392
 H        -1.702755        -0.539375         2.642662
 H        -2.613818        -0.746994         0.992186
