19
Iteration:  1547
 O         0.319360        -0.389551         0.500767
 C        -0.784351         0.566760         0.680833
 C        -0.377336         1.799571         1.561380
 C        -1.866828         2.064743         1.211922
 C        -2.122180         3.453224         0.704199
 C        -1.288589         2.964215        -0.547114
 C        -1.592685         1.495430        -0.197660
 O        -2.697864         1.124929         1.922330
 C        -1.911021        -0.086586         1.537282
 H         0.628676        -0.450560        -0.436279
 H        -0.276150         1.341381         2.488580
 H         0.376900         2.598045         1.115477
 H        -3.089970         3.432566         0.321671
 H        -1.974638         4.348739         1.311879
 H        -1.673440         3.210597        -1.523684
 H        -0.247480         3.193499        -0.583561
 H        -2.393914         1.097782        -0.724188
 H        -1.496201        -0.680303         2.420323
 H        -2.499030        -0.678243         0.802925
