19
Iteration:  1444charge 0 multiplicity 1
 O         0.279649        -0.345816         0.290149
 C        -0.714359         0.521477         0.718215
 C        -0.527526         1.783235         1.648722
 C        -1.926989         2.032522         1.173314
 C        -2.158983         3.446185         0.591679
 C        -1.243786         3.001255        -0.613524
 C        -1.511457         1.472411        -0.161991
 O        -2.610071         1.137563         1.994088
 C        -1.897821        -0.059183         1.629282
 H         0.658656        -0.950574         0.901187
 H        -0.453417         1.678359         2.785974
 H         0.240453         2.361364         1.243588
 H        -3.223410         3.711450         0.387907
 H        -1.674581         4.130334         1.240199
 H        -1.747651         3.293073        -1.557347
 H        -0.202410         3.507309        -0.650984
 H        -2.327558         1.025820        -0.847072
 H        -1.612045        -0.819823         2.437964
 H        -2.614537        -0.710090         1.040548
