19
Iteration:  1336charge 0 multiplicity 1
 O         0.222917        -0.378613         0.268018
 C        -0.687687         0.512217         0.842687
 C        -0.449172         1.799111         1.643293
 C        -1.912004         2.135591         1.223135
 C        -2.127537         3.507869         0.534448
 C        -1.268553         2.967813        -0.560617
 C        -1.575656         1.470948        -0.134112
 O        -2.667323         1.051419         1.932286
 C        -1.872343        -0.066891         1.576205
 H         0.910074        -0.500255         0.864030
 H        -0.171742         1.545375         2.790038
 H         0.261890         2.430038         1.231449
 H        -3.221098         3.510343         0.213553
 H        -1.937748         4.452030         1.057048
 H        -1.603973         3.267185        -1.564793
 H        -0.175076         3.262088        -0.528954
 H        -2.399196         1.022272        -0.747642
 H        -1.558290        -0.642508         2.508780
 H        -2.300269        -0.765619         0.830334
