19
Iteration:  3140charge 0 multiplicity 1
 O         0.309723        -0.433111         0.377677
 C        -0.731048         0.574563         0.752144
 C        -0.427306         1.788225         1.668418
 C        -1.903330         2.119435         1.182354
 C        -2.184469         3.483307         0.583197
 C        -1.333614         2.993342        -0.598076
 C        -1.503799         1.456168        -0.200692
 O        -2.670996         1.108946         1.913738
 C        -1.890483        -0.083458         1.557392
 H         0.767486        -0.775199         1.126053
 H        -0.163544         1.779729         2.777774
 H         0.433881         2.285100         1.186666
 H        -3.239561         3.629813         0.391577
 H        -1.896708         4.274254         1.211544
 H        -1.714811         3.269642        -1.540680
 H        -0.307964         3.431006        -0.392392
 H        -2.453750         0.985696        -0.625722
 H        -1.431606        -0.673602         2.374741
 H        -2.542093        -0.732251         0.846541
