19
Iteration:  4207charge 0 multiplicity 1
 O         0.326658        -0.334007         0.371812
 C        -0.679932         0.565896         0.751006
 C        -0.453432         1.803945         1.640682
 C        -1.922216         2.140254         1.160732
 C        -2.219049         3.470309         0.558205
 C        -1.279111         2.874560        -0.658332
 C        -1.647774         1.466760        -0.200701
 O        -2.642258         1.160550         2.035482
 C        -1.777564        -0.143647         1.606548
 H        -0.159605        -1.291506         0.535330
 H        -0.314662         1.650110         2.703063
 H         0.471409         2.408017         1.529176
 H        -3.200623         3.719920         0.253655
 H        -1.863443         4.343340         1.199632
 H        -1.561675         3.208175        -1.714316
 H        -0.305379         3.185556        -0.495007
 H        -2.470865         0.958864        -0.874713
 H        -1.257849        -0.533000         2.457240
 H        -2.551036        -0.738372         0.954549
