19
Iteration:  3886
 O         0.371483        -0.336817         0.366313
 C        -0.650697         0.568384         0.729159
 C        -0.390508         1.819419         1.650188
 C        -1.871538         2.043236         1.241661
 C        -2.198318         3.409051         0.723409
 C        -1.332534         2.912723        -0.671968
 C        -1.538617         1.446044        -0.220306
 O        -2.718544         1.176923         1.909189
 C        -1.939624        -0.029373         1.602873
 H         0.119864        -1.358786         0.323993
 H        -0.243363         1.510215         2.645159
 H         0.334919         2.569858         1.279612
 H        -3.284062         3.627792         0.335882
 H        -1.736719         4.248857         1.292456
 H        -1.777427         3.140137        -1.601844
 H        -0.248919         3.311843        -0.633218
 H        -2.280777         0.916072        -0.904824
 H        -1.676237        -0.512647         2.515804
 H        -2.603745        -0.655114         1.041603
