19
Iteration:   469
 O         0.316923        -0.348165         0.333065
 C        -0.756505         0.494838         0.754227
 C        -0.482867         1.790286         1.621990
 C        -1.935232         2.027702         1.153521
 C        -2.137492         3.464880         0.603392
 C        -1.263152         3.017909        -0.620756
 C        -1.589937         1.442451        -0.239926
 O        -2.602983         1.163159         2.036901
 C        -1.872332        -0.128378         1.586290
 H         0.643923        -0.692954         1.152519
 H        -0.502331         1.649395         2.719389
 H         0.320953         2.538447         1.291420
 H        -3.036444         3.659145         0.051330
 H        -1.972820         4.298940         1.332451
 H        -1.813120         3.549248        -1.485416
 H        -0.226356         3.262540        -0.456852
 H        -2.378230         0.869233        -0.928291
 H        -1.539346        -0.471872         2.476354
 H        -2.482486        -0.752762         0.981119
