19
Iteration:    50
 O         0.240155        -0.370109         0.258521
 C        -0.711317         0.588421         0.745395
 C        -0.412061         1.773700         1.790279
 C        -1.880673         2.053190         1.141760
 C        -2.227037         3.406257         0.533657
 C        -1.261584         2.924308        -0.600993
 C        -1.531878         1.447301        -0.221492
 O        -2.644222         1.177419         1.997850
 C        -1.848771         0.010985         1.605577
 H         0.510188        -0.840735         1.095742
 H        -0.643459         1.379776         2.844288
 H         0.447352         2.429518         1.512810
 H        -3.226844         3.571501         0.082614
 H        -1.894873         4.300593         1.089631
 H        -1.719711         3.054407        -1.620922
 H        -0.174787         3.256272        -0.456964
 H        -2.490107         0.968690        -0.687266
 H        -1.454770        -0.474591         2.557658
 H        -2.422664        -0.739846         0.905587
