19
Iteration:  3437charge 0 multiplicity 1
 O         0.342888        -0.405559         0.396377
 C        -0.690367         0.520783         0.764341
 C        -0.448605         1.801121         1.606667
 C        -1.897810         2.076404         1.203885
 C        -2.250249         3.503767         0.594667
 C        -1.241167         3.030677        -0.554924
 C        -1.481158         1.463590        -0.151744
 O        -2.691814         1.123534         1.942082
 C        -1.898625        -0.077456         1.540334
 H        -0.044220        -1.226968         0.309970
 H        -0.327327         1.552665         2.650633
 H         0.332763         2.484461         1.106108
 H        -3.335786         3.392989         0.149652
 H        -2.010028         4.353989         1.282434
 H        -1.408458         3.168072        -1.664297
 H        -0.288410         3.454822        -0.419156
 H        -2.376319         1.037303        -0.744629
 H        -1.603779        -0.575855         2.426470
 H        -2.470369        -0.684916         0.815209
