19
Iteration:  3329
 O         0.257840        -0.440569         0.401415
 C        -0.692051         0.613585         0.744015
 C        -0.454638         1.787078         1.690921
 C        -1.896239         1.998048         1.165596
 C        -2.237868         3.472226         0.557506
 C        -1.214767         3.003082        -0.601246
 C        -1.493496         1.443951        -0.175255
 O        -2.652913         1.122866         1.963491
 C        -1.904436        -0.032066         1.595312
 H         0.567427        -0.304155        -0.434044
 H        -0.416463         1.607371         2.745645
 H         0.405867         2.534790         1.529286
 H        -3.320758         3.588240         0.377518
 H        -1.971183         4.414729         1.106235
 H        -1.588255         3.346184        -1.649346
 H        -0.212107         3.208427        -0.446733
 H        -2.283703         0.935566        -0.733733
 H        -1.762272        -0.725730         2.477353
 H        -2.390592        -0.689500         0.834740
