19
Iteration:   477
 O         0.266350        -0.341787         0.344593
 C        -0.666949         0.586668         0.750227
 C        -0.518008         1.781485         1.605892
 C        -1.949201         2.066443         1.103733
 C        -2.119633         3.425363         0.648884
 C        -1.279783         2.984563        -0.593258
 C        -1.594453         1.424497        -0.219386
 O        -2.599736         1.176211         2.014421
 C        -1.852454        -0.108658         1.580155
 H         0.661803        -0.704333         1.082233
 H        -0.556591         1.686291         2.781650
 H         0.217325         2.381068         1.308083
 H        -3.196173         3.539321         0.328132
 H        -1.752029         4.304387         1.168417
 H        -1.665737         3.258496        -1.555660
 H        -0.192360         3.211889        -0.500448
 H        -2.336696         0.928332        -0.904541
 H        -1.597857        -0.819378         2.417608
 H        -2.496371        -0.788947         0.973730
