19
Iteration:  3362
 O         0.372469        -0.291073         0.412390
 C        -0.679448         0.547297         0.737234
 C        -0.393071         1.741046         1.659860
 C        -1.898982         2.081850         1.191572
 C        -2.159177         3.446134         0.607369
 C        -1.224949         2.983985        -0.617366
 C        -1.536012         1.463596        -0.159946
 O        -2.760700         1.106808         1.914573
 C        -1.982331        -0.094275         1.623969
 H         0.109583        -0.965559        -0.325289
 H        -0.353467         1.563541         2.712699
 H         0.295167         2.451515         1.083492
 H        -3.280280         3.631270         0.457030
 H        -1.673096         4.367674         1.090844
 H        -1.649551         3.358686        -1.639886
 H        -0.220497         3.231740        -0.613118
 H        -2.365041         0.910507        -0.628742
 H        -1.652971        -0.626595         2.593297
 H        -2.523168        -0.739482         0.894281
