19
Iteration:  2597charge 0 multiplicity 1
 O         0.231456        -0.451410         0.443374
 C        -0.666213         0.548370         0.746325
 C        -0.395806         1.780815         1.691179
 C        -1.806249         2.068817         1.192658
 C        -2.191451         3.421347         0.717246
 C        -1.368108         3.004229        -0.588993
 C        -1.463707         1.503717        -0.210518
 O        -2.740249         1.158829         1.795841
 C        -1.885145        -0.055158         1.513538
 H         1.061202        -0.100133         0.304189
 H        -0.172339         1.527884         2.792753
 H         0.281347         2.489338         1.337420
 H        -3.198400         3.431697         0.436951
 H        -1.867989         4.245076         1.447134
 H        -1.899737         3.122072        -1.517232
 H        -0.277634         3.289725        -0.373311
 H        -2.202427         0.838782        -0.834289
 H        -1.761326        -0.584835         2.365956
 H        -2.521609        -0.578429         0.834549
