19
Iteration:  1902
 O         0.303766        -0.351172         0.356108
 C        -0.656471         0.556234         0.785879
 C        -0.426458         1.709413         1.731767
 C        -1.818855         2.102166         1.304585
 C        -2.172861         3.470946         0.633570
 C        -1.287338         2.927743        -0.548780
 C        -1.479825         1.425727        -0.137422
 O        -2.770161         1.174613         1.765374
 C        -1.923964        -0.076621         1.559726
 H         0.398152        -0.231948        -0.651234
 H        -0.188137         1.382184         2.760228
 H         0.275240         2.458123         1.274348
 H        -3.231300         3.578742         0.351540
 H        -2.033759         4.437114         1.110097
 H        -1.642728         3.052138        -1.548502
 H        -0.263066         3.452682        -0.601575
 H        -2.416384         1.091610        -0.570877
 H        -1.678474        -0.671495         2.417363
 H        -2.581416        -0.844399         0.929353
