19
Iteration:  1272charge 0 multiplicity 1
 O         0.332762        -0.353364         0.351493
 C        -0.767004         0.557743         0.759925
 C        -0.439072         1.785709         1.636030
 C        -1.892049         2.105220         1.223119
 C        -2.156444         3.521065         0.612428
 C        -1.266166         2.958901        -0.666583
 C        -1.547470         1.485362        -0.178953
 O        -2.689894         1.043655         1.981528
 C        -1.912251        -0.107250         1.547465
 H         0.735126        -0.854072         1.002162
 H         0.034766         1.601626         2.647472
 H         0.276232         2.318659         1.116881
 H        -3.267541         3.812536         0.369836
 H        -1.784182         4.380492         1.305345
 H        -1.814330         3.131741        -1.640656
 H        -0.298914         3.303012        -0.545427
 H        -2.247284         1.057692        -0.855555
 H        -1.599752        -0.556337         2.462433
 H        -2.572177        -0.654721         0.967918
