19
Iteration:  2000charge 0 multiplicity 1
 O         0.311594        -0.423822         0.316146
 C        -0.700252         0.509992         0.747333
 C        -0.422401         1.727160         1.857194
 C        -1.840788         2.077023         1.193254
 C        -2.226585         3.450755         0.609944
 C        -1.342426         3.026948        -0.610836
 C        -1.417851         1.473066        -0.205712
 O        -2.644684         1.139821         1.824145
 C        -2.046785        -0.061324         1.593953
 H         1.155066         0.058002         0.151358
 H        -0.185492         1.457472         2.896743
 H         0.493516         2.290361         1.338503
 H        -3.350085         3.608907         0.459969
 H        -2.077107         4.427042         1.253099
 H        -1.844675         3.237779        -1.510424
 H        -0.248258         3.496293        -0.648979
 H        -2.308779         1.090764        -0.668115
 H        -1.617330        -0.453107         2.496476
 H        -2.738364        -0.852078         1.121778
