19
Iteration:  3889
 O         0.386144        -0.333810         0.360470
 C        -0.669329         0.568099         0.761718
 C        -0.378722         1.804054         1.625321
 C        -1.881122         2.051494         1.224235
 C        -2.188609         3.411195         0.728218
 C        -1.311505         2.879221        -0.677675
 C        -1.535990         1.469016        -0.234622
 O        -2.738072         1.170667         1.921248
 C        -1.955163        -0.011176         1.606772
 H         0.186389        -1.306767         0.367218
 H        -0.212060         1.465433         2.707094
 H         0.290071         2.581321         1.251378
 H        -3.216284         3.570260         0.450514
 H        -1.798801         4.326182         1.358051
 H        -1.961051         3.139508        -1.572304
 H        -0.248808         3.219109        -0.595548
 H        -2.292932         1.026110        -0.967543
 H        -1.589290        -0.509220         2.481840
 H        -2.493057        -0.690971         0.966063
