19
Iteration:  3687
 O         0.177278        -0.464074         0.365348
 C        -0.656735         0.619630         0.793657
 C        -0.346999         1.886217         1.693226
 C        -1.869659         2.116634         1.191898
 C        -2.204250         3.420766         0.562726
 C        -1.294757         2.915322        -0.686460
 C        -1.531727         1.503698        -0.127296
 O        -2.690551         1.054332         1.988592
 C        -1.865130        -0.072804         1.583244
 H         0.904524        -0.111735        -0.052512
 H        -0.308592         1.592053         2.753307
 H         0.460439         2.501889         1.352253
 H        -3.269253         3.691661         0.219808
 H        -1.903268         4.267553         1.078804
 H        -1.903732         3.134447        -1.596178
 H        -0.334251         3.345613        -0.687016
 H        -2.325638         1.049232        -0.784279
 H        -1.471241        -0.670700         2.400655
 H        -2.425224        -0.657150         0.889243
