19
Iteration:  3237charge 0 multiplicity 1
 O         0.250444        -0.307927         0.347788
 C        -0.708208         0.559516         0.752771
 C        -0.426310         1.807578         1.703252
 C        -1.922537         2.075719         1.178961
 C        -2.115477         3.453470         0.621024
 C        -1.288979         2.996344        -0.665413
 C        -1.545251         1.402813        -0.201782
 O        -2.681069         1.100931         1.963111
 C        -1.912745        -0.114994         1.559824
 H         0.963697        -0.435509         1.097562
 H        -0.070741         1.679512         2.769796
 H         0.350679         2.368074         1.205588
 H        -3.143857         3.856109         0.255877
 H        -1.787306         4.274727         1.284326
 H        -1.655931         3.097695        -1.596432
 H        -0.160243         3.116804        -0.613971
 H        -2.404268         0.907613        -0.773453
 H        -1.675820        -0.646053         2.440264
 H        -2.513957        -0.803698         0.930813
