19
Iteration:  1022charge 0 multiplicity 1
 O         0.281375        -0.376116         0.250995
 C        -0.661017         0.535771         0.800240
 C        -0.384295         1.788449         1.797083
 C        -1.838829         2.088432         1.204201
 C        -2.150062         3.558747         0.606616
 C        -1.448635         2.972882        -0.656062
 C        -1.489894         1.421436        -0.174791
 O        -2.642254         1.111511         1.869476
 C        -1.927944        -0.139522         1.609847
 H         0.543854        -0.901430         0.945363
 H        -0.505017         1.654938         2.864611
 H         0.456979         2.443829         1.513207
 H        -3.187122         3.795566         0.490891
 H        -1.691840         4.470797         1.013640
 H        -2.047005         3.259166        -1.617217
 H        -0.476592         3.387023        -0.868608
 H        -2.402582         1.020236        -0.731714
 H        -1.534533        -0.510243         2.564223
 H        -2.585374        -0.835353         1.006751
