19
Iteration:  4016charge 0 multiplicity 1
 O         0.259273        -0.402305         0.504119
 C        -0.731098         0.587744         0.722363
 C        -0.397339         1.810450         1.584480
 C        -1.908879         2.094415         1.220202
 C        -2.179081         3.443525         0.638771
 C        -1.329903         3.003412        -0.676324
 C        -1.516228         1.392893        -0.224691
 O        -2.644773         1.091989         2.018455
 C        -1.856532        -0.034839         1.509059
 H         0.485204        -0.476309        -0.353143
 H        -0.185056         1.653522         2.610745
 H         0.382760         2.532968         1.380366
 H        -3.254117         3.637533         0.463506
 H        -1.863681         4.228769         1.195328
 H        -1.784496         3.280575        -1.632905
 H        -0.221058         3.264521        -0.640103
 H        -2.242086         0.908227        -0.805976
 H        -1.526656        -0.553042         2.527497
 H        -2.610171        -0.817479         0.977729
