19
Iteration:  1555charge 0 multiplicity 1
 O         0.345022        -0.354702         0.497597
 C        -0.736788         0.533902         0.677970
 C        -0.375973         1.736363         1.542802
 C        -1.876762         2.029646         1.228885
 C        -2.172387         3.478897         0.683783
 C        -1.242143         2.994088        -0.559894
 C        -1.612494         1.447858        -0.192183
 O        -2.645344         1.120399         1.907571
 C        -1.977944        -0.054500         1.524481
 H         0.405778        -0.600567        -0.502404
 H        -0.129445         1.542506         2.645792
 H         0.366745         2.460098         1.369857
 H        -3.269370         3.724409         0.353478
 H        -2.002388         4.340199         1.278103
 H        -1.746203         3.353140        -1.543401
 H        -0.222515         3.347525        -0.414569
 H        -2.554884         1.097982        -0.754134
 H        -1.531137        -0.381844         2.574592
 H        -2.589158        -0.865612         1.006601
