19
Iteration:  4669charge 0 multiplicity 1
 O         0.289527        -0.425453         0.296303
 C        -0.675822         0.577321         0.772860
 C        -0.286051         1.769765         1.608468
 C        -1.851520         2.109681         1.246934
 C        -2.204214         3.422859         0.492831
 C        -1.377235         2.905320        -0.688961
 C        -1.526342         1.454841        -0.147236
 O        -2.694032         1.193033         2.031129
 C        -1.938796        -0.049689         1.655781
 H         0.780286        -0.458446         1.038682
 H        -0.093523         1.590096         2.686885
 H         0.341865         2.597608         1.281112
 H        -3.247416         3.158220         0.324284
 H        -2.212730         4.349371         1.143723
 H        -1.800127         3.262852        -1.661102
 H        -0.366375         3.435233        -0.729978
 H        -2.423191         0.995185        -0.692628
 H        -1.619106        -0.581755         2.523789
 H        -2.581338        -0.644537         0.918016
