19
Iteration:  1197
 O         0.293810        -0.318897         0.224966
 C        -0.715602         0.510962         0.831511
 C        -0.344004         1.717701         1.702511
 C        -1.861919         2.093096         1.249192
 C        -2.230049         3.445324         0.621747
 C        -1.246857         2.971427        -0.701491
 C        -1.510862         1.484067        -0.071486
 O        -2.716296         1.118624         1.888168
 C        -1.923468        -0.053027         1.599626
 H         0.744024        -0.875205         0.986064
 H        -0.135624         1.750385         2.774996
 H         0.260374         2.300955         1.111262
 H        -3.295037         3.467943         0.243277
 H        -1.995728         4.408625         1.202851
 H        -1.819949         3.229758        -1.772467
 H        -0.241749         3.259796        -0.761667
 H        -2.371316         1.116736        -0.573089
 H        -1.733115        -0.500666         2.604172
 H        -2.672505        -0.719959         0.952226
