19
Iteration:  4470
 O         0.215711        -0.363325         0.272931
 C        -0.732606         0.577897         0.788344
 C        -0.396780         1.896359         1.710399
 C        -1.885494         2.143080         1.188209
 C        -2.176501         3.451796         0.524500
 C        -1.327095         2.796670        -0.698577
 C        -1.552475         1.424571        -0.177607
 O        -2.574508         1.118367         2.005594
 C        -1.903409        -0.072451         1.653075
 H         1.033571        -0.262770         0.747479
 H        -0.454287         1.771169         2.773026
 H         0.339079         2.576606         1.269071
 H        -3.262139         3.618808         0.353372
 H        -1.633734         4.347816         1.225347
 H        -1.877584         3.147528        -1.522507
 H        -0.227010         3.052198        -0.677617
 H        -2.441601         0.848196        -0.572804
 H        -1.519371        -0.718875         2.399098
 H        -2.541203        -0.809395         1.046661
