19
Iteration:  2676charge 0 multiplicity 1
 O         0.361568        -0.300348         0.361268
 C        -0.672059         0.557906         0.761254
 C        -0.472653         1.720993         1.700514
 C        -1.904537         2.065678         1.176073
 C        -2.166014         3.425728         0.697017
 C        -1.181895         2.953462        -0.561197
 C        -1.505955         1.435094        -0.229024
 O        -2.784747         1.114089         1.910436
 C        -1.923290        -0.018675         1.567042
 H        -0.047839        -0.609137        -0.452294
 H        -0.395564         1.510388         2.717006
 H         0.401902         2.361852         1.319131
 H        -3.164124         3.644620         0.259162
 H        -1.965681         4.249808         1.308979
 H        -1.540809         3.248971        -1.498466
 H        -0.174125         3.384432        -0.618823
 H        -2.283812         0.913061        -0.864074
 H        -1.602680        -0.380114         2.436680
 H        -2.552635        -0.758032         1.072405
