19
Iteration:  4400
 O         0.246700        -0.395237         0.328817
 C        -0.652639         0.552873         0.739338
 C        -0.396567         1.850983         1.627067
 C        -1.890792         2.047087         1.168014
 C        -2.246785         3.449668         0.610770
 C        -1.328356         2.942170        -0.665726
 C        -1.520495         1.394533        -0.245805
 O        -2.666317         1.183382         2.039368
 C        -1.848494        -0.025718         1.650214
 H         0.509732        -0.896594         1.030725
 H        -0.087168         1.612682         2.648816
 H         0.312361         2.345587         0.987513
 H        -3.302111         3.604681         0.196478
 H        -1.924330         4.229147         1.211581
 H        -1.775931         2.989063        -1.730015
 H        -0.352985         3.368950        -0.616948
 H        -2.398503         1.027275        -0.705801
 H        -1.344935        -0.320864         2.598855
 H        -2.330195        -0.838700         1.241596
