19
Iteration:  4397charge 0 multiplicity 1
 O         0.239620        -0.400223         0.325543
 C        -0.642185         0.582873         0.723603
 C        -0.384917         1.857268         1.616804
 C        -1.899402         2.050660         1.177744
 C        -2.253952         3.450478         0.600866
 C        -1.328886         2.943124        -0.672764
 C        -1.516657         1.398944        -0.230976
 O        -2.663365         1.164725         2.039517
 C        -1.870480        -0.033618         1.659618
 H         0.489625        -0.999876         1.137583
 H        -0.041668         1.601761         2.675952
 H         0.309903         2.513053         1.046740
 H        -3.205462         3.642497         0.242125
 H        -1.927287         4.322034         1.136743
 H        -1.758363         2.916679        -1.668380
 H        -0.262866         3.349159        -0.588463
 H        -2.451354         0.939254        -0.681850
 H        -1.256295        -0.333525         2.599054
 H        -2.377598        -0.908929         1.119861
