19
Iteration:  1673charge 0 multiplicity 1
 O         0.317440        -0.397572         0.435888
 C        -0.718378         0.542827         0.742578
 C        -0.425717         1.749219         1.649548
 C        -1.913710         2.053114         1.186352
 C        -2.106024         3.470882         0.716825
 C        -1.259716         2.985812        -0.536916
 C        -1.590469         1.502773        -0.215205
 O        -2.666129         1.085409         1.877251
 C        -1.937570        -0.062210         1.481794
 H         0.712982        -0.168462        -0.386807
 H        -0.249642         1.642319         2.794775
 H         0.376283         2.378680         1.432047
 H        -3.161336         3.710625         0.281831
 H        -1.969197         4.378024         1.363471
 H        -1.759216         3.321569        -1.512851
 H        -0.187418         3.225557        -0.425660
 H        -2.525957         1.078238        -0.764739
 H        -1.696543        -0.516548         2.397787
 H        -2.556073        -0.703844         0.875285
