19
Iteration:  1640charge 0 multiplicity 1
 O         0.304529        -0.392862         0.278189
 C        -0.753930         0.476068         0.723769
 C        -0.418600         1.720666         1.688005
 C        -1.980726         2.078120         1.221748
 C        -2.140610         3.445525         0.665166
 C        -1.256686         3.003251        -0.560767
 C        -1.453238         1.546338        -0.230150
 O        -2.675438         1.105993         1.958736
 C        -1.957045        -0.061377         1.560801
 H         1.070367        -0.078782         0.726938
 H        -0.362184         1.534344         2.834303
 H         0.228242         2.310350         1.168106
 H        -3.261817         3.522644         0.216451
 H        -1.937610         4.350330         1.301829
 H        -1.476505         3.254367        -1.665390
 H        -0.242619         3.449314        -0.446503
 H        -2.361020         1.183943        -0.882117
 H        -1.639068        -0.438208         2.484852
 H        -2.570963        -0.740563         1.006962
