19
Iteration:   691charge 0 multiplicity 1
 O         0.261591        -0.337590         0.248839
 C        -0.699053         0.551650         0.778702
 C        -0.367708         1.764814         1.690995
 C        -1.889787         2.111065         1.194833
 C        -2.275839         3.426381         0.576810
 C        -1.276011         2.949699        -0.586849
 C        -1.490739         1.449373        -0.141355
 O        -2.678698         1.190834         1.936003
 C        -1.889153        -0.137818         1.602466
 H         0.802904        -0.744159         0.856782
 H        -0.258840         1.579304         2.836078
 H         0.472615         2.211724         1.216936
 H        -3.311545         3.633655         0.185738
 H        -1.940921         4.213350         1.225535
 H        -1.563936         3.145670        -1.597784
 H        -0.178959         3.488879        -0.490481
 H        -2.441739         1.063559        -0.777722
 H        -1.646319        -0.590919         2.553364
 H        -2.617569        -0.764099         1.003280
