19
Iteration:  2096charge 0 multiplicity 1
 O         0.267867        -0.425178         0.331732
 C        -0.661633         0.592802         0.777254
 C        -0.366378         1.715670         1.756985
 C        -1.762251         2.081309         1.199953
 C        -2.180355         3.376982         0.660945
 C        -1.339905         3.023276        -0.609254
 C        -1.490417         1.474172        -0.168239
 O        -2.800285         1.155490         1.797628
 C        -1.970841        -0.061204         1.570092
 H         1.084598         0.134856         0.004604
 H        -0.297890         1.534404         2.836292
 H         0.484430         2.437593         1.494079
 H        -3.232039         3.531059         0.528639
 H        -1.832554         4.360880         1.173037
 H        -1.757965         3.134620        -1.594268
 H        -0.237114         3.310876        -0.440138
 H        -2.350829         0.931317        -0.514147
 H        -1.637833        -0.503718         2.647014
 H        -2.465091        -0.730345         0.897754
