19
Iteration:  2518charge 0 multiplicity 1
 O         0.315173        -0.338808         0.264443
 C        -0.652364         0.563929         0.823751
 C        -0.409643         1.752751         1.751883
 C        -1.888752         2.081836         1.253256
 C        -2.176552         3.432313         0.615967
 C        -1.238460         2.925899        -0.570015
 C        -1.448540         1.474647        -0.127412
 O        -2.800728         1.131189         1.862903
 C        -1.984219        -0.115194         1.557108
 H         0.581989         0.032112        -0.505423
 H        -0.220236         1.588871         2.819282
 H         0.362542         2.528233         1.388230
 H        -3.245346         3.543301         0.326155
 H        -1.814569         4.425482         1.016987
 H        -1.411535         3.230084        -1.742001
 H        -0.145216         3.349180        -0.465745
 H        -2.244458         0.863970        -0.692974
 H        -1.999156        -0.570780         2.577181
 H        -2.531413        -0.799511         0.951316
