19
Iteration:  2362
 O         0.348567        -0.300363         0.372480
 C        -0.733540         0.569250         0.734871
 C        -0.403623         1.702010         1.669190
 C        -1.959490         2.052219         1.176507
 C        -2.200310         3.481700         0.627217
 C        -1.152767         2.950349        -0.459099
 C        -1.541304         1.467048        -0.264227
 O        -2.709859         1.142787         1.932387
 C        -1.970440        -0.055178         1.556819
 H         0.350286        -0.503221        -0.676846
 H        -0.219533         1.250133         2.664913
 H         0.376470         2.312840         1.357833
 H        -3.223106         3.418532         0.173700
 H        -1.988513         4.161667         1.358574
 H        -1.490102         3.247509        -1.502294
 H        -0.199391         3.145836        -0.125355
 H        -2.196646         0.970384        -0.923721
 H        -1.473658        -0.422073         2.580512
 H        -2.634010        -0.795320         1.084875
