19
Iteration:   292
 O         0.224767        -0.358979         0.274464
 C        -0.671088         0.612596         0.684220
 C        -0.330617         1.744552         1.650865
 C        -1.912545         2.094788         1.242780
 C        -2.245493         3.453518         0.577064
 C        -1.259868         2.895253        -0.577090
 C        -1.523946         1.405005        -0.155538
 O        -2.695651         1.167916         1.956740
 C        -1.892130        -0.039978         1.623477
 H         0.897659        -0.391714         1.067863
 H        -0.054233         1.304274         2.744105
 H         0.285945         2.522378         1.289757
 H        -3.321492         3.469974         0.300007
 H        -1.902267         4.304858         1.147049
 H        -1.490662         3.100924        -1.633362
 H        -0.182212         3.371294        -0.539822
 H        -2.422722         0.986113        -0.825904
 H        -1.800646        -0.556812         2.533375
 H        -2.466888        -0.773611         1.024785
