19
Iteration:  1040charge 0 multiplicity 1
 O         0.322577        -0.335854         0.332936
 C        -0.686208         0.554610         0.730585
 C        -0.423018         1.665361         1.651166
 C        -1.832150         2.094383         1.210808
 C        -2.152843         3.402889         0.656516
 C        -1.363381         2.979968        -0.698411
 C        -1.595005         1.494038        -0.155729
 O        -2.726642         1.143799         1.937215
 C        -1.831163        -0.014304         1.580638
 H         0.404480        -0.964609         0.990110
 H        -0.259606         1.379801         2.709959
 H         0.385033         2.429744         1.335497
 H        -3.266939         3.656776         0.420043
 H        -1.868176         4.301455         1.285398
 H        -1.810958         3.131767        -1.620173
 H        -0.216033         3.301881        -0.652626
 H        -2.373970         1.032708        -0.680457
 H        -1.451768        -0.391785         2.590928
 H        -2.487276        -0.657914         0.947529
