19
Iteration:  4761
 O         0.305268        -0.350853         0.240196
 C        -0.731898         0.530659         0.774251
 C        -0.402388         1.775918         1.690956
 C        -1.841366         2.133773         1.157523
 C        -2.205214         3.414459         0.587105
 C        -1.363306         2.906322        -0.717301
 C        -1.536752         1.409105        -0.176325
 O        -2.619673         1.190835         1.975867
 C        -1.914354        -0.021077         1.722013
 H         0.594982        -0.998882         0.929752
 H        -0.213336         1.597551         2.766960
 H         0.303665         2.550746         1.349696
 H        -3.277385         3.430599         0.184040
 H        -2.023735         4.397176         1.203873
 H        -1.806451         3.112294        -1.672600
 H        -0.365650         3.226187        -0.742435
 H        -2.332039         0.841388        -0.532239
 H        -1.384960        -0.351377         2.666969
 H        -2.534766        -0.763305         1.284200
