19
Iteration:  4378charge 0 multiplicity 1
 O         0.220027        -0.397789         0.306158
 C        -0.641053         0.574012         0.789008
 C        -0.379797         1.917286         1.641458
 C        -1.880780         2.113565         1.264767
 C        -2.162020         3.454788         0.490684
 C        -1.369142         2.856350        -0.661035
 C        -1.622992         1.457132        -0.123246
 O        -2.626345         1.095062         1.988933
 C        -1.783259        -0.025028         1.606236
 H         0.263167        -1.141237         1.096525
 H        -0.316411         1.646995         2.708124
 H         0.329902         2.554751         1.065353
 H        -3.300850         3.383813         0.167487
 H        -1.880852         4.328096         1.010282
 H        -1.837953         3.193032        -1.666251
 H        -0.349683         3.216760        -0.601900
 H        -2.337324         1.003685        -0.764553
 H        -1.691150        -0.603888         2.531186
 H        -2.321270        -0.645024         0.999184
