19
Iteration:  3769charge 0 multiplicity 1
 O         0.184223        -0.393592         0.380444
 C        -0.639532         0.590171         0.722382
 C        -0.392805         1.832969         1.691753
 C        -1.906640         2.087772         1.178905
 C        -2.168904         3.546164         0.619583
 C        -1.345391         2.849991        -0.667274
 C        -1.614668         1.446766        -0.116674
 O        -2.671893         1.085825         1.937841
 C        -1.816923        -0.072536         1.547721
 H         1.108983        -0.031669         0.501878
 H        -0.131110         1.567697         2.754191
 H         0.406188         2.577934         1.338607
 H        -3.124899         3.711976         0.287774
 H        -1.685566         4.421329         1.170955
 H        -1.717312         3.032748        -1.693542
 H        -0.213416         3.068631        -0.646512
 H        -2.442493         0.958638        -0.682026
 H        -1.445703        -0.510027         2.527390
 H        -2.359743        -0.984169         0.993629
