19
Iteration:  4075
 O         0.240696        -0.343778         0.326218
 C        -0.689672         0.545093         0.731969
 C        -0.370661         1.694821         1.668768
 C        -1.926628         2.088789         1.220849
 C        -2.196965         3.381710         0.602688
 C        -1.329219         2.938206        -0.708854
 C        -1.518493         1.495556        -0.170607
 O        -2.649601         1.155180         1.941104
 C        -1.874096        -0.005830         1.661393
 H         1.147298         0.014300         0.678852
 H        -0.469649         1.349801         2.728738
 H         0.398852         2.415325         1.324422
 H        -3.244806         3.339502         0.279319
 H        -1.928369         4.375868         1.216541
 H        -1.709110         3.097508        -1.751496
 H        -0.219834         3.014804        -0.700853
 H        -2.564538         1.117474        -0.652559
 H        -1.508653        -0.245197         2.656082
 H        -2.507835        -0.854487         1.227037
