19
Iteration:  3395charge 0 multiplicity 1
 O         0.342787        -0.289800         0.395104
 C        -0.675906         0.542135         0.720127
 C        -0.500394         1.694491         1.674366
 C        -1.864127         2.156550         1.203924
 C        -2.153029         3.459878         0.662932
 C        -1.269497         2.946433        -0.635120
 C        -1.515616         1.443259        -0.172243
 O        -2.747398         1.122755         1.887762
 C        -1.877051        -0.063579         1.551030
 H         0.179372        -1.326426         0.413221
 H        -0.402501         1.650962         2.753673
 H         0.371510         2.436938         1.503895
 H        -3.260951         3.653421         0.384243
 H        -1.526079         4.308336         1.149396
 H        -1.928656         3.293162        -1.538736
 H        -0.308196         3.303955        -0.747745
 H        -2.345905         0.896820        -0.643013
 H        -1.486838        -0.666302         2.483574
 H        -2.563718        -0.754532         1.015016
