19
Iteration:   428
 O         0.221845        -0.358019         0.228177
 C        -0.674033         0.553109         0.811682
 C        -0.330591         1.827041         1.797663
 C        -1.852371         2.107799         1.254625
 C        -2.222081         3.378617         0.591046
 C        -1.301947         2.960336        -0.611374
 C        -1.541163         1.381446        -0.167080
 O        -2.711870         1.168911         1.847335
 C        -1.868507         0.011905         1.565905
 H         0.820187        -0.921613         0.879283
 H        -0.126728         1.618225         2.780330
 H         0.461623         2.579755         1.295628
 H        -3.276977         3.337393         0.313937
 H        -1.976513         4.296794         1.180167
 H        -1.882110         3.062383        -1.595639
 H        -0.245013         3.117352        -0.638075
 H        -2.424709         0.960990        -0.591496
 H        -1.570447        -0.609776         2.549835
 H        -2.469158        -0.784528         1.061471
