19
Iteration:  1870
 O         0.271139        -0.393293         0.412983
 C        -0.692902         0.602607         0.695182
 C        -0.503107         1.779219         1.674977
 C        -1.902290         2.079752         1.212173
 C        -2.191204         3.546892         0.609634
 C        -1.180022         3.029051        -0.560730
 C        -1.463941         1.442469        -0.279844
 O        -2.704738         1.048289         2.037208
 C        -1.920432        -0.142313         1.561893
 H         0.217881        -0.457421        -0.482049
 H        -0.458234         1.498487         2.734329
 H         0.212756         2.630020         1.429412
 H        -3.179885         3.499821         0.156092
 H        -1.756484         4.270949         1.195763
 H        -1.433093         3.279951        -1.552564
 H        -0.102256         3.405095        -0.394992
 H        -2.285575         0.977003        -0.876215
 H        -1.452456        -0.739145         2.308471
 H        -2.595008        -0.632437         0.692348
