19
Iteration:  4286
 O         0.202813        -0.450516         0.408436
 C        -0.661761         0.548903         0.723692
 C        -0.398587         1.860243         1.679870
 C        -1.937973         2.092417         1.223740
 C        -2.153273         3.484904         0.546815
 C        -1.354137         2.981868        -0.770699
 C        -1.590047         1.479631        -0.144198
 O        -2.663585         1.097210         2.037372
 C        -1.813402        -0.090661         1.621955
 H         1.086882        -0.075796         0.136098
 H        -0.227139         1.663729         2.772885
 H         0.296035         2.490017         1.126946
 H        -3.127631         3.548099         0.206148
 H        -1.773860         4.354684         1.092754
 H        -1.736918         3.018079        -1.779057
 H        -0.258247         3.314680        -0.735004
 H        -2.323024         0.845072        -0.776809
 H        -1.410411        -0.587606         2.529686
 H        -2.267948        -0.940725         1.089136
