19
Iteration:  4275
 O         0.296217        -0.508080         0.409177
 C        -0.699815         0.642781         0.769822
 C        -0.440445         1.820595         1.639538
 C        -1.897465         2.082311         1.221498
 C        -2.215778         3.429378         0.572950
 C        -1.347133         2.926247        -0.733227
 C        -1.522586         1.504551        -0.186366
 O        -2.645539         1.127328         2.000358
 C        -1.853343        -0.064351         1.640523
 H         0.814360        -0.215188        -0.273003
 H        -0.270410         1.646946         2.724831
 H         0.315470         2.563904         1.361107
 H        -3.214717         3.674607         0.461245
 H        -1.768403         4.315167         1.055832
 H        -1.870593         3.023400        -1.683942
 H        -0.297408         3.353262        -0.865767
 H        -2.422172         1.033963        -0.730441
 H        -1.425376        -0.455584         2.573158
 H        -2.569148        -0.686421         1.096416
