19
Iteration:  3914charge 0 multiplicity 1
 O         0.357568        -0.244130         0.387332
 C        -0.717418         0.502104         0.745740
 C        -0.448989         1.784618         1.594616
 C        -1.899331         2.064529         1.237131
 C        -2.118304         3.486254         0.595428
 C        -1.298113         2.999887        -0.620320
 C        -1.609752         1.416453        -0.157107
 O        -2.673727         1.119690         1.916020
 C        -1.918858        -0.129325         1.604121
 H         0.371666        -1.272577         0.603872
 H        -0.241415         1.512468         2.668422
 H         0.354795         2.364610         1.109805
 H        -3.020836         3.919523         0.272771
 H        -1.594618         4.296177         1.112294
 H        -1.925289         3.123889        -1.576164
 H        -0.285830         3.283464        -0.488430
 H        -2.382692         1.018425        -0.792950
 H        -1.477765        -0.619850         2.560675
 H        -2.625304        -0.854880         1.042497
