19
Iteration:  4894
 O         0.241707        -0.369792         0.292639
 C        -0.665021         0.578335         0.701218
 C        -0.496034         1.812800         1.672503
 C        -1.976120         2.131579         1.235194
 C        -2.146055         3.415685         0.476484
 C        -1.266526         2.864348        -0.688453
 C        -1.570499         1.398350        -0.163885
 O        -2.582387         1.173451         2.128881
 C        -1.863615        -0.037123         1.605526
 H         0.790071        -0.649237         0.929349
 H        -0.065162         1.661888         2.690704
 H         0.198353         2.544972         1.184956
 H        -3.250422         3.592009         0.247986
 H        -1.912046         4.410479         1.110617
 H        -1.647783         2.962775        -1.634600
 H        -0.273168         3.279402        -0.910613
 H        -2.456067         1.029732        -0.577572
 H        -1.575603        -0.723024         2.468298
 H        -2.566691        -0.666571         1.046686
