19
Iteration:  3718
 O         0.271074        -0.464471         0.347349
 C        -0.694513         0.544081         0.746213
 C        -0.301602         1.744547         1.637563
 C        -1.901477         2.118640         1.167456
 C        -2.305399         3.386706         0.558748
 C        -1.321358         2.970333        -0.565854
 C        -1.552346         1.492443        -0.187312
 O        -2.634054         1.159501         1.959671
 C        -1.928492        -0.001729         1.637154
 H         1.137499         0.006552         0.729180
 H        -0.116027         1.411893         2.691290
 H         0.590469         2.300213         1.299027
 H        -3.385754         3.438462         0.118595
 H        -1.844415         4.243138         1.092970
 H        -1.751936         3.238218        -1.590627
 H        -0.417594         3.549044        -0.596225
 H        -2.306781         1.096055        -0.844803
 H        -1.513332        -0.548180         2.528717
 H        -2.542672        -0.653597         1.093641
