19
Iteration:  3578
 O         0.230246        -0.425569         0.321367
 C        -0.692699         0.574681         0.757785
 C        -0.348460         1.810165         1.691685
 C        -1.846272         2.100213         1.240226
 C        -2.272850         3.427702         0.616748
 C        -1.291604         2.979962        -0.590389
 C        -1.480520         1.420582        -0.220814
 O        -2.678953         1.138727         1.961829
 C        -1.868682        -0.017544         1.516861
 H         0.422802        -0.953433         1.103745
 H        -0.339387         1.745898         2.774599
 H         0.278487         2.660854         1.351376
 H        -3.349069         3.397324         0.266302
 H        -1.984081         4.248885         1.137324
 H        -1.627740         3.064068        -1.667229
 H        -0.396081         3.556527        -0.598584
 H        -2.281164         0.914818        -0.891904
 H        -1.355734        -0.614183         2.310372
 H        -2.589871        -0.712167         0.897833
