19
Iteration:  3628
 O         0.371588        -0.247544         0.389304
 C        -0.705030         0.542848         0.750317
 C        -0.425733         1.711364         1.594695
 C        -1.859221         2.093937         1.214201
 C        -2.164427         3.441153         0.601515
 C        -1.333399         2.894909        -0.602655
 C        -1.563521         1.459198        -0.172451
 O        -2.745893         1.155885         1.945661
 C        -1.901619        -0.064983         1.625011
 H        -0.081087        -1.094182        -0.030657
 H        -0.040850         1.466885         2.599029
 H         0.375861         2.408783         1.140608
 H        -3.170946         3.438960         0.234052
 H        -1.619872         4.372868         1.086997
 H        -1.585686         3.405328        -1.518603
 H        -0.237614         3.245668        -0.580141
 H        -2.283729         0.930364        -0.718762
 H        -1.461378        -0.598974         2.495485
 H        -2.487907        -0.775536         1.171585
