19
Iteration:  3878
 O         0.347556        -0.347319         0.380916
 C        -0.642655         0.563689         0.682905
 C        -0.421448         1.811076         1.679677
 C        -1.870163         2.059874         1.217391
 C        -2.206541         3.412979         0.629505
 C        -1.368107         2.997688        -0.609544
 C        -1.522896         1.400067        -0.173032
 O        -2.666675         1.173929         1.903826
 C        -1.910212        -0.073409         1.592863
 H        -0.190738        -1.254202         0.219097
 H        -0.259641         1.649400         2.802784
 H         0.367613         2.491180         1.332866
 H        -3.230731         3.659768         0.376635
 H        -1.685229         4.281794         1.199219
 H        -1.608159         3.192529        -1.693239
 H        -0.329196         3.428951        -0.655409
 H        -2.316012         0.731917        -0.644509
 H        -1.691157        -0.528835         2.530521
 H        -2.656185        -0.669629         1.100033
