19
Iteration:   676
 O         0.290338        -0.361354         0.266476
 C        -0.706758         0.537966         0.716083
 C        -0.462912         1.728415         1.672758
 C        -1.937923         2.040059         1.179873
 C        -2.183406         3.444597         0.578668
 C        -1.234965         2.959479        -0.583463
 C        -1.577301         1.487348        -0.209721
 O        -2.648004         1.116881         2.053336
 C        -1.877332         0.010927         1.575788
 H         0.686926        -0.692223         1.143668
 H        -0.410950         1.461710         2.657136
 H         0.211198         2.608960         1.397000
 H        -3.210647         3.400569         0.270481
 H        -2.055845         4.454007         1.073402
 H        -1.403791         3.314621        -1.647924
 H        -0.251254         3.192494        -0.450570
 H        -2.196458         0.890786        -0.815802
 H        -1.368997        -0.362380         2.471334
 H        -2.528062        -0.596153         0.982399
