19
Iteration:   334
 O         0.256691        -0.409253         0.273074
 C        -0.649646         0.542531         0.806271
 C        -0.403682         1.808083         1.690257
 C        -1.888500         2.078003         1.215309
 C        -2.192600         3.528047         0.590028
 C        -1.348687         2.982321        -0.715831
 C        -1.451002         1.487527        -0.143490
 O        -2.677100         1.094223         1.958159
 C        -1.941358        -0.098077         1.646154
 H         0.843560        -0.763843         0.879815
 H        -0.433869         1.410829         2.782575
 H         0.292290         2.604488         1.284054
 H        -3.245407         3.822776         0.369685
 H        -1.671643         4.334199         1.086089
 H        -1.969777         2.956579        -1.601155
 H        -0.308832         3.555668        -0.807044
 H        -2.207683         0.879616        -0.849139
 H        -1.495461        -0.664621         2.432728
 H        -2.587749        -0.769030         1.018362
