19
Iteration:  4902
 O         0.239520        -0.410956         0.281983
 C        -0.680736         0.596954         0.783687
 C        -0.449882         1.800417         1.640889
 C        -1.904788         2.114200         1.275081
 C        -2.175488         3.423459         0.480244
 C        -1.296359         2.878855        -0.695462
 C        -1.580378         1.397644        -0.171106
 O        -2.568070         1.167538         2.115912
 C        -1.893495        -0.027965         1.581269
 H         0.757756        -0.640047         0.987714
 H        -0.324955         1.845464         2.739938
 H         0.074326         2.609586         1.194866
 H        -3.209732         3.438435         0.092904
 H        -1.872317         4.427650         0.876400
 H        -1.746367         3.141837        -1.674115
 H        -0.334796         3.312481        -0.569212
 H        -2.367421         0.926423        -0.716590
 H        -1.424851        -0.604325         2.430686
 H        -2.535404        -0.501249         0.900732
