19
Iteration:  4141charge 0 multiplicity 1
 O         0.280443        -0.342164         0.329472
 C        -0.693547         0.553971         0.741495
 C        -0.431580         1.798912         1.704069
 C        -1.784291         2.079950         1.239388
 C        -2.189242         3.436062         0.567725
 C        -1.429142         2.917795        -0.625393
 C        -1.554983         1.444023        -0.192373
 O        -2.615422         1.191779         1.930898
 C        -1.872528        -0.077957         1.602967
 H         0.475515        -0.943275         0.988831
 H        -0.459671         1.505274         2.781072
 H         0.507814         2.341344         1.318607
 H        -3.204615         3.427076         0.182836
 H        -1.897820         4.467644         1.051944
 H        -1.763940         3.160165        -1.688201
 H        -0.430908         3.291586        -0.690711
 H        -2.422520         0.757867        -0.695717
 H        -1.465089        -0.381988         2.562209
 H        -2.528085        -0.779087         0.928163
