19
Iteration:  1224
 O         0.249513        -0.351359         0.186306
 C        -0.657813         0.564555         0.740381
 C        -0.428602         1.710173         1.724155
 C        -1.817874         2.077956         1.209123
 C        -2.264522         3.435295         0.608687
 C        -1.307509         2.939245        -0.612123
 C        -1.394935         1.413818        -0.176399
 O        -2.705427         1.175269         1.933090
 C        -1.929101        -0.003751         1.641030
 H         0.599425        -0.914702         0.986383
 H        -0.445975         1.598674         2.827719
 H         0.363607         2.547796         1.510934
 H        -3.303992         3.409155         0.369142
 H        -2.078558         4.374326         1.030452
 H        -1.670983         3.192764        -1.526734
 H        -0.226004         3.261557        -0.337692
 H        -2.189694         0.953379        -0.843651
 H        -1.598076        -0.281282         2.661147
 H        -2.565873        -0.702756         1.143462
