19
Iteration:  4685
 O         0.304793        -0.330910         0.326370
 C        -0.701367         0.502919         0.750605
 C        -0.380427         1.734978         1.652449
 C        -1.822362         2.082788         1.179123
 C        -2.300278         3.413150         0.614555
 C        -1.340619         2.923999        -0.691856
 C        -1.604411         1.420878        -0.195472
 O        -2.576889         1.222348         1.986623
 C        -1.956599        -0.009726         1.651989
 H         1.024576        -0.529803         0.932167
 H        -0.181458         1.627407         2.735949
 H         0.563658         2.165722         1.252433
 H        -3.379460         3.589264         0.290642
 H        -1.848417         4.403219         0.930070
 H        -1.613814         2.998558        -1.730005
 H        -0.289965         3.139982        -0.659486
 H        -2.414490         0.957267        -0.702765
 H        -1.631899        -0.525229         2.627067
 H        -2.619836        -0.645429         1.139032
