19
Iteration:  3420charge 0 multiplicity 1
 O         0.309998        -0.389741         0.395253
 C        -0.676691         0.604769         0.777466
 C        -0.388097         1.792496         1.721744
 C        -1.984246         2.090124         1.164674
 C        -2.177584         3.440848         0.594783
 C        -1.272336         2.972882        -0.557214
 C        -1.554547         1.522623        -0.212809
 O        -2.673899         1.084023         1.927112
 C        -1.900302        -0.074566         1.504999
 H         0.074448        -1.292160         0.428920
 H        -0.065429         1.977187         2.770644
 H         0.317904         2.425696         1.307451
 H        -3.136565         3.614319         0.293016
 H        -1.739323         4.335108         1.056522
 H        -1.792189         3.313087        -1.467277
 H        -0.136842         3.168937        -0.606794
 H        -2.114269         0.942103        -0.867709
 H        -1.620938        -0.739064         2.445148
 H        -2.534988        -0.773524         0.922155
