19
Iteration:  3857
 O         0.269390        -0.402226         0.417664
 C        -0.691142         0.500766         0.821986
 C        -0.410566         1.783376         1.661933
 C        -1.864304         2.116121         1.215551
 C        -2.291295         3.498585         0.606324
 C        -1.287334         2.974657        -0.685096
 C        -1.549949         1.564554        -0.208443
 O        -2.636754         1.063186         1.970454
 C        -1.814146        -0.061832         1.591420
 H        -0.016747        -0.972971        -0.277203
 H        -0.308010         1.537228         2.779371
 H         0.458623         2.358566         1.319574
 H        -3.175622         3.462622         0.123499
 H        -2.033721         4.488617         1.104950
 H        -1.574196         3.184979        -1.769519
 H        -0.294944         3.423270        -0.798287
 H        -2.296774         1.054133        -0.848530
 H        -1.530412        -0.606091         2.515122
 H        -2.458478        -0.752046         0.969838
