19
Iteration:   240charge 0 multiplicity 1
 O         0.225364        -0.363356         0.307110
 C        -0.646126         0.618045         0.791483
 C        -0.357408         1.798968         1.681958
 C        -1.930664         2.098033         1.225067
 C        -2.138064         3.442758         0.563364
 C        -1.344495         2.898867        -0.604882
 C        -1.526739         1.447454        -0.180856
 O        -2.716319         1.110992         1.960825
 C        -1.854067        -0.027616         1.523499
 H         0.564376        -1.012494         1.068119
 H        -0.349594         1.557711         2.740642
 H         0.318944         2.415122         1.212388
 H        -3.198056         3.671351         0.366783
 H        -1.639561         4.271160         1.103618
 H        -1.837389         3.189315        -1.573140
 H        -0.378540         3.268756        -0.487227
 H        -2.206601         0.917961        -0.770059
 H        -1.346046        -0.550315         2.443393
 H        -2.520745        -0.737850         0.970177
