19
Iteration:   251
 O         0.272088        -0.353535         0.303300
 C        -0.741152         0.539222         0.729699
 C        -0.413602         1.808776         1.671329
 C        -1.915189         2.043612         1.153458
 C        -2.199809         3.476322         0.615081
 C        -1.295483         2.959427        -0.596798
 C        -1.541550         1.445749        -0.192168
 O        -2.618315         1.156479         1.948550
 C        -1.882203        -0.099782         1.624190
 H         0.532881        -0.836106         1.111388
 H        -0.253938         1.703559         2.732705
 H         0.366224         2.472659         1.446775
 H        -3.188420         3.755859         0.229986
 H        -1.791419         4.328982         1.201696
 H        -1.619827         3.153728        -1.663216
 H        -0.296406         3.237731        -0.625911
 H        -2.268098         0.971292        -0.759045
 H        -1.560633        -0.668024         2.593565
 H        -2.529859        -0.777354         1.000609
