19
Iteration:  2440charge 0 multiplicity 1
 O         0.399205        -0.358785         0.459754
 C        -0.734814         0.501817         0.751602
 C        -0.413855         1.743870         1.653254
 C        -1.857423         2.091141         1.204412
 C        -2.148438         3.483250         0.736078
 C        -1.307215         3.040838        -0.534277
 C        -1.467733         1.511848        -0.269428
 O        -2.694089         1.123898         1.819918
 C        -2.015703        -0.132030         1.490995
 H         0.124604        -1.328569         0.630481
 H        -0.292058         1.609014         2.676843
 H         0.290395         2.539635         1.144212
 H        -3.279217         3.544668         0.477212
 H        -1.942718         4.276807         1.402847
 H        -1.825410         3.504768        -1.540372
 H        -0.299041         3.418096        -0.795750
 H        -2.309328         0.988876        -0.774539
 H        -1.643402        -0.813382         2.360871
 H        -2.770306        -0.600321         0.913281
