19
Iteration:  2401
 O         0.291235        -0.379822         0.339590
 C        -0.655947         0.579951         0.728581
 C        -0.412267         1.728144         1.870242
 C        -1.904902         2.072161         1.260244
 C        -2.172584         3.547298         0.606870
 C        -1.278488         2.977302        -0.598640
 C        -1.469583         1.517646        -0.161008
 O        -2.729163         1.060847         1.861322
 C        -1.910440        -0.090300         1.490166
 H        -0.139514        -1.146813         0.118243
 H        -0.128308         1.568209         2.960351
 H         0.273735         2.509759         1.511273
 H        -3.133987         3.800478         0.240309
 H        -1.905770         4.596392         1.072391
 H        -1.793855         3.126953        -1.551920
 H        -0.214377         3.393110        -0.789942
 H        -2.190839         1.043494        -0.893301
 H        -1.670149        -0.638898         2.356305
 H        -2.452630        -0.868270         0.769492
