19
Iteration:  3552charge 0 multiplicity 1
 O         0.289294        -0.410514         0.312460
 C        -0.682241         0.526928         0.838400
 C        -0.367262         1.730302         1.597512
 C        -1.867640         2.091518         1.221707
 C        -2.192360         3.411036         0.607154
 C        -1.330017         3.032323        -0.582462
 C        -1.553171         1.498213        -0.219855
 O        -2.718081         1.156555         1.888037
 C        -1.908620        -0.081077         1.638634
 H         1.048320        -0.371772         0.815608
 H        -0.387107         1.705360         2.717495
 H         0.419710         2.385075         1.116159
 H        -3.239444         3.320122         0.300254
 H        -1.998617         4.441403         1.209182
 H        -1.492274         3.150877        -1.656917
 H        -0.212816         3.451822        -0.422536
 H        -2.348091         1.065014        -0.776549
 H        -1.606758        -0.617202         2.662518
 H        -2.526674        -0.713100         0.970977
