19
Iteration:  1122
 O         0.275191        -0.348299         0.250056
 C        -0.675781         0.565782         0.827876
 C        -0.326523         1.716528         1.710344
 C        -1.851635         2.066653         1.202136
 C        -2.196939         3.430710         0.638126
 C        -1.343307         2.953088        -0.625922
 C        -1.572575         1.460878        -0.091632
 O        -2.725115         1.172996         1.831881
 C        -1.900852        -0.022451         1.585933
 H         0.888666        -0.708161         0.904055
 H        -0.012194         1.486748         2.718151
 H         0.314328         2.297752         1.138278
 H        -3.183552         3.460784         0.334313
 H        -1.898229         4.239282         1.258890
 H        -1.638344         3.197981        -1.716899
 H        -0.367300         3.214441        -0.590562
 H        -2.454352         1.113536        -0.621579
 H        -1.569538        -0.435490         2.540433
 H        -2.489276        -0.844356         1.116001
