19
Iteration:  1284charge 0 multiplicity 1
 O         0.339605        -0.305006         0.309898
 C        -0.673374         0.509001         0.756889
 C        -0.392950         1.713357         1.675711
 C        -1.925695         2.064887         1.168487
 C        -2.156806         3.445148         0.661618
 C        -1.322242         2.945609        -0.618772
 C        -1.549067         1.453973        -0.157841
 O        -2.700545         1.230261         1.942098
 C        -1.913939        -0.101001         1.524582
 H         0.582583        -0.708304         1.191535
 H        -0.448897         1.530494         2.758133
 H         0.379838         2.362035         1.367454
 H        -3.250106         3.679046         0.397376
 H        -1.639546         4.269767         1.300068
 H        -1.866171         3.109865        -1.631513
 H        -0.387767         3.291627        -0.853456
 H        -2.360270         0.991690        -0.680556
 H        -1.619507        -0.602697         2.412824
 H        -2.420477        -0.826390         0.934241
