19
Iteration:  2018charge 0 multiplicity 1
 O         0.262271        -0.410309         0.323164
 C        -0.651902         0.473792         0.867506
 C        -0.394396         1.706020         1.715082
 C        -1.836645         2.104883         1.216891
 C        -2.171414         3.441360         0.594010
 C        -1.316019         3.074229        -0.642174
 C        -1.453938         1.534545        -0.111974
 O        -2.776846         1.130451         1.860154
 C        -1.908326        -0.121695         1.578193
 H         0.883755         0.075111        -0.246030
 H        -0.514393         1.523935         2.829480
 H         0.339561         2.375401         1.371277
 H        -3.214756         3.539438         0.381880
 H        -1.953643         4.440527         1.128528
 H        -1.676185         3.181710        -1.724763
 H        -0.407834         3.666929        -0.691612
 H        -2.169763         0.962956        -0.724782
 H        -1.830499        -0.819044         2.540279
 H        -2.448149        -0.764633         0.957046
