19
Iteration:  3821
 O         0.328665        -0.386248         0.406143
 C        -0.699733         0.492633         0.757256
 C        -0.389708         1.770342         1.621920
 C        -1.889741         2.088636         1.207036
 C        -2.244760         3.431013         0.635829
 C        -1.327967         2.935947        -0.578127
 C        -1.531337         1.388922        -0.233422
 O        -2.654354         1.206254         1.928078
 C        -1.864429         0.000700         1.627298
 H         0.261987        -0.202371        -0.504384
 H        -0.363442         1.758690         2.679431
 H         0.503211         2.265935         1.173196
 H        -3.322634         3.531638         0.324465
 H        -1.971290         4.384352         1.122785
 H        -1.724678         3.122728        -1.495984
 H        -0.285768         3.218982        -0.284547
 H        -2.326258         0.849961        -0.883023
 H        -1.738491        -0.548643         2.473242
 H        -2.460412        -0.533648         0.962617
