19
Iteration:  1484
 O         0.216626        -0.387708         0.255463
 C        -0.675690         0.580580         0.732202
 C        -0.366762         1.704655         1.711393
 C        -1.881363         2.085343         1.224845
 C        -2.163691         3.363356         0.591921
 C        -1.321505         2.987226        -0.631741
 C        -1.527118         1.483461        -0.120251
 O        -2.717584         1.144698         1.901272
 C        -1.896184        -0.008086         1.603065
 H         0.954593        -0.171759         0.950157
 H         0.055731         1.346583         2.602975
 H         0.366577         2.546818         1.475683
 H        -3.212975         3.460253         0.402032
 H        -1.929289         4.346410         1.215197
 H        -1.624517         3.112260        -1.611764
 H        -0.254691         3.204909        -0.404609
 H        -2.335469         1.013838        -0.644222
 H        -1.507874        -0.366923         2.482217
 H        -2.532436        -0.697199         1.039910
