19
Iteration:  3121charge 0 multiplicity 1
 O         0.298234        -0.339456         0.376667
 C        -0.686224         0.503687         0.773354
 C        -0.432715         1.754973         1.632398
 C        -1.853465         2.021615         1.217097
 C        -2.157330         3.479991         0.670434
 C        -1.325836         2.974609        -0.653733
 C        -1.496618         1.490384        -0.191772
 O        -2.684585         1.146337         1.917059
 C        -1.958376        -0.070845         1.544444
 H         0.976662        -0.443015         1.128815
 H        -0.394920         1.499929         2.708273
 H         0.274939         2.449675         1.322963
 H        -3.124712         3.676566         0.389991
 H        -1.871553         4.368808         1.242743
 H        -1.961704         3.018617        -1.661300
 H        -0.359144         3.382217        -0.984868
 H        -2.114280         0.981266        -0.878161
 H        -1.774691        -0.607286         2.534902
 H        -2.557701        -0.821585         0.950228
