19
Iteration:  4875
 O         0.277934        -0.282518         0.252505
 C        -0.741392         0.561312         0.801882
 C        -0.369322         1.768691         1.607094
 C        -1.900154         2.120540         1.198279
 C        -2.114322         3.463754         0.568477
 C        -1.329219         2.818353        -0.681777
 C        -1.617345         1.358036        -0.158972
 O        -2.657338         1.151252         2.000350
 C        -1.895486        -0.056607         1.721052
 H         0.777394        -0.566513         0.956463
 H        -0.396085         1.908889         2.713082
 H         0.370458         2.524758         1.242054
 H        -3.121913         3.752099         0.265901
 H        -1.722832         4.381704         0.999735
 H        -1.726899         3.154131        -1.695258
 H        -0.240791         3.231548        -0.676786
 H        -2.403846         0.839241        -0.855628
 H        -1.371582        -0.446037         2.569962
 H        -2.505897        -0.822523         1.122412
