19
Iteration:  3719
 O         0.274264        -0.461707         0.347522
 C        -0.693186         0.546312         0.747473
 C        -0.288928         1.733290         1.627453
 C        -1.909057         2.116341         1.164605
 C        -2.305056         3.392145         0.561631
 C        -1.318713         2.977806        -0.568230
 C        -1.544260         1.494674        -0.191419
 O        -2.639267         1.161299         1.964583
 C        -1.933197        -0.006723         1.643309
 H         1.127224         0.005802         0.729790
 H        -0.154735         1.434830         2.689445
 H         0.567595         2.306469         1.315666
 H        -3.390345         3.444037         0.118210
 H        -1.865946         4.200361         1.091580
 H        -1.751325         3.223340        -1.585547
 H        -0.430215         3.535201        -0.598050
 H        -2.313849         1.066826        -0.844092
 H        -1.514732        -0.554015         2.498515
 H        -2.544520        -0.639451         1.134496
