19
Iteration:   698
 O         0.241964        -0.323175         0.227905
 C        -0.699434         0.511635         0.814630
 C        -0.356195         1.818238         1.674653
 C        -1.832458         2.101133         1.208639
 C        -2.223294         3.442130         0.579588
 C        -1.298596         2.950584        -0.568235
 C        -1.479574         1.451206        -0.115362
 O        -2.695202         1.154869         1.881882
 C        -1.927696        -0.151650         1.617453
 H         0.805982        -0.728337         0.924018
 H        -0.255876         1.551964         2.634136
 H         0.561929         2.348758         1.223672
 H        -3.239448         3.468252         0.225102
 H        -2.072667         4.371215         1.199654
 H        -1.616609         3.113712        -1.627214
 H        -0.507942         3.551318        -0.559865
 H        -2.268883         0.940295        -0.555060
 H        -1.747982        -0.509789         2.625572
 H        -2.615854        -0.625023         0.971966
