19
Iteration:   187
 O         0.314066        -0.318587         0.287006
 C        -0.733447         0.505874         0.752679
 C        -0.431803         1.660539         1.629279
 C        -1.880476         2.080948         1.149038
 C        -2.227868         3.455496         0.617493
 C        -1.275938         2.994174        -0.641024
 C        -1.499999         1.405662        -0.225563
 O        -2.673939         1.187794         2.012618
 C        -1.899949        -0.023222         1.685954
 H         0.708724        -0.838499         1.096343
 H        -0.354672         1.454053         2.694340
 H         0.286916         2.525116         1.176450
 H        -3.256659         3.520616         0.258951
 H        -2.009625         4.407861         1.156734
 H        -1.644851         3.232814        -1.689035
 H        -0.307480         3.268493        -0.478140
 H        -2.226488         0.964485        -0.802900
 H        -1.465595        -0.645547         2.489829
 H        -2.593933        -0.480503         1.047734
