19
Iteration:  3076charge 0 multiplicity 1
 O         0.262535        -0.347424         0.298131
 C        -0.696430         0.574031         0.775592
 C        -0.486584         1.758759         1.690192
 C        -1.913031         2.139485         1.182924
 C        -2.138608         3.481844         0.590423
 C        -1.209719         2.903279        -0.600117
 C        -1.566480         1.475467        -0.113236
 O        -2.712861         1.054031         1.906535
 C        -1.874489        -0.080555         1.597462
 H         1.094615         0.034078         0.788758
 H        -0.307795         1.485714         2.754235
 H         0.279210         2.366337         1.260610
 H        -3.087979         3.652463         0.213011
 H        -1.801300         4.374565         1.022263
 H        -1.641111         3.170621        -1.580488
 H        -0.135862         3.259098        -0.738959
 H        -2.466856         1.120491        -0.608637
 H        -1.610541        -0.744006         2.441795
 H        -2.514541        -0.788999         1.053452
