19
Iteration:  2957charge 0 multiplicity 1
 O         0.413373        -0.213274         0.382051
 C        -0.735153         0.556420         0.717944
 C        -0.495086         1.735948         1.644905
 C        -1.941799         2.048679         1.172045
 C        -2.114021         3.422862         0.647920
 C        -1.228504         2.952386        -0.564240
 C        -1.509622         1.444286        -0.158661
 O        -2.718539         1.115971         1.912136
 C        -2.018980        -0.084618         1.557027
 H         0.083643        -1.071224         0.016967
 H        -0.323958         1.494208         2.685591
 H         0.428154         2.196221         1.295670
 H        -3.101002         3.806054         0.456649
 H        -1.625542         4.326091         1.317420
 H        -1.618952         3.274014        -1.523231
 H        -0.155903         3.268783        -0.585845
 H        -2.208277         0.971534        -0.766925
 H        -1.450260        -0.515619         2.457778
 H        -2.643601        -0.830963         1.097670
