19
Iteration:  4893charge 0 multiplicity 1
 O         0.242662        -0.362913         0.291306
 C        -0.670289         0.572149         0.698204
 C        -0.493696         1.823923         1.670744
 C        -1.974277         2.123478         1.226996
 C        -2.147513         3.420447         0.479369
 C        -1.262139         2.864080        -0.688460
 C        -1.571294         1.405500        -0.162511
 O        -2.589271         1.172505         2.129235
 C        -1.862186        -0.038509         1.607294
 H         0.798642        -0.647685         0.940731
 H        -0.058361         1.615236         2.680968
 H         0.228248         2.510953         1.195356
 H        -3.249029         3.601989         0.250863
 H        -1.895777         4.399420         1.134026
 H        -1.663575         2.929972        -1.638259
 H        -0.285313         3.229784        -0.920626
 H        -2.428617         1.029977        -0.564099
 H        -1.592336        -0.733242         2.486461
 H        -2.547811        -0.672704         1.088725
