19
Iteration:  1556
 O         0.346711        -0.351839         0.491754
 C        -0.724556         0.528131         0.679394
 C        -0.381737         1.720692         1.551772
 C        -1.879691         2.035262         1.227759
 C        -2.184822         3.480872         0.679329
 C        -1.239559         2.999804        -0.561391
 C        -1.616949         1.445887        -0.196509
 O        -2.642780         1.120403         1.907463
 C        -1.980072        -0.050495         1.524833
 H         0.371365        -0.605308        -0.458475
 H        -0.124910         1.582090         2.625185
 H         0.405966         2.474533         1.359191
 H        -3.241435         3.721412         0.366331
 H        -1.963148         4.324623         1.274127
 H        -1.726366         3.360716        -1.526698
 H        -0.239478         3.354455        -0.412363
 H        -2.524613         1.104197        -0.736671
 H        -1.537765        -0.387742         2.580107
 H        -2.606032        -0.883944         1.045465
