19
Iteration:  4338charge 0 multiplicity 1
 O         0.352590        -0.317401         0.240153
 C        -0.696123         0.569996         0.777169
 C        -0.401823         1.731366         1.636794
 C        -1.892951         2.070640         1.214677
 C        -2.169970         3.360111         0.546992
 C        -1.361731         2.946446        -0.628902
 C        -1.536344         1.364402        -0.252220
 O        -2.683276         1.238568         2.045589
 C        -1.940312         0.015319         1.741628
 H         0.818495        -0.809150         0.838177
 H        -0.161788         1.603717         2.650073
 H         0.470145         2.297557         1.250389
 H        -3.231053         3.346932         0.162324
 H        -1.898003         4.430510         0.950113
 H        -1.835296         3.058977        -1.620767
 H        -0.393951         3.311679        -0.777049
 H        -2.377138         0.807797        -0.742941
 H        -1.597689        -0.471475         2.649021
 H        -2.527571        -0.739920         0.997683
