19
Iteration:  3572
 O         0.230857        -0.409385         0.321513
 C        -0.692565         0.513916         0.728047
 C        -0.335583         1.816821         1.688289
 C        -1.842025         2.088654         1.202178
 C        -2.320800         3.416968         0.612918
 C        -1.249640         2.962180        -0.589771
 C        -1.476375         1.447727        -0.171920
 O        -2.665979         1.146340         1.929230
 C        -1.924288        -0.025084         1.533793
 H         0.534580        -0.735805         1.167228
 H        -0.132621         1.568150         2.767101
 H         0.212852         2.618964         1.229990
 H        -3.326000         3.547095         0.279833
 H        -2.081288         4.406809         1.280135
 H        -1.835118         3.119752        -1.480680
 H        -0.285146         3.575492        -0.598906
 H        -2.184171         0.884869        -0.715587
 H        -1.322122        -0.502010         2.351191
 H        -2.539523        -0.663779         1.020775
