19
Iteration:   610charge 0 multiplicity 1
 O         0.331049        -0.372857         0.270363
 C        -0.643796         0.547161         0.702234
 C        -0.383885         1.726915         1.828250
 C        -1.884748         2.091637         1.220498
 C        -2.128951         3.393445         0.646581
 C        -1.411285         2.925285        -0.723496
 C        -1.513052         1.478905        -0.145967
 O        -2.726655         1.203047         1.903605
 C        -1.932177        -0.037095         1.576573
 H         0.679398        -0.769036         1.011588
 H        -0.251601         1.485533         2.851999
 H         0.335176         2.533896         1.442090
 H        -3.177579         3.500527         0.424408
 H        -1.873845         4.310021         1.268271
 H        -1.938946         2.935199        -1.760612
 H        -0.481393         3.390554        -0.667942
 H        -2.257236         1.009542        -0.848407
 H        -1.309093        -0.183385         2.554020
 H        -2.636046        -0.742078         1.039161
