19
Iteration:  3539
 O         0.286984        -0.400026         0.335199
 C        -0.699220         0.468811         0.734949
 C        -0.425030         1.771124         1.704079
 C        -1.846525         2.058426         1.157872
 C        -2.193228         3.464950         0.585615
 C        -1.269801         3.011662        -0.636488
 C        -1.587397         1.433392        -0.187835
 O        -2.737767         1.134195         1.950556
 C        -1.898011        -0.056377         1.594728
 H         1.205328         0.059783         0.645957
 H        -0.126303         1.594281         2.777585
 H         0.276156         2.492167         1.360515
 H        -3.258282         3.590064         0.411968
 H        -1.716718         4.452909         1.126587
 H        -1.647336         3.541041        -1.503806
 H        -0.192501         3.335501        -0.424719
 H        -2.392314         0.990639        -0.730712
 H        -1.471434        -0.550956         2.543089
 H        -2.457877        -0.817133         1.141984
