19
Iteration:  1117
 O         0.259992        -0.353752         0.245726
 C        -0.660408         0.582359         0.812833
 C        -0.337878         1.703336         1.695333
 C        -1.845307         2.094765         1.223900
 C        -2.197425         3.423899         0.656158
 C        -1.336930         2.928144        -0.655166
 C        -1.551153         1.473199        -0.116775
 O        -2.742225         1.151219         1.843288
 C        -1.892091        -0.003915         1.589114
 H         0.949002        -0.762078         0.894297
 H        -0.133863         1.433010         2.759996
 H         0.433919         2.479207         1.265016
 H        -3.365581         3.320835         0.432799
 H        -1.926487         4.389470         1.218904
 H        -1.593841         3.153367        -1.661550
 H        -0.175084         3.276478        -0.623787
 H        -2.505830         1.033248        -0.491815
 H        -1.619043        -0.456978         2.582662
 H        -2.513278        -0.776428         1.086343
