19
Iteration:  1342
 O         0.237989        -0.404580         0.278402
 C        -0.766556         0.560642         0.781324
 C        -0.446720         1.821417         1.660397
 C        -1.900032         2.099544         1.236848
 C        -2.172705         3.510571         0.576189
 C        -1.213276         2.964491        -0.582666
 C        -1.588018         1.460741        -0.189326
 O        -2.635339         1.044153         1.952504
 C        -1.870569        -0.077112         1.579397
 H         0.971180        -0.574305         0.906058
 H        -0.273577         1.749652         2.656861
 H         0.311101         2.591471         1.266907
 H        -3.181072         3.572724         0.243478
 H        -1.978094         4.502403         1.042955
 H        -1.495830         3.278550        -1.581274
 H        -0.156236         3.148442        -0.306947
 H        -2.405993         0.910581        -0.677415
 H        -1.616738        -0.485274         2.551323
 H        -2.343472        -0.748280         0.815390
