19
Iteration:  2832
 O         0.350877        -0.366780         0.431216
 C        -0.726574         0.603386         0.755444
 C        -0.488458         1.786068         1.685875
 C        -1.911399         2.065189         1.252104
 C        -2.117059         3.442541         0.617831
 C        -1.234953         3.022755        -0.602432
 C        -1.465900         1.483395        -0.256334
 O        -2.715124         1.089222         1.939612
 C        -1.953021        -0.156748         1.522171
 H         0.193613        -0.531554        -0.522716
 H        -0.355736         1.551041         2.824022
 H         0.245874         2.457670         1.352841
 H        -3.187001         3.927466         0.435142
 H        -1.693943         4.209018         1.308955
 H        -1.835130         3.239702        -1.552545
 H        -0.211601         3.333600        -0.571827
 H        -2.234087         0.849630        -0.836236
 H        -1.689028        -0.535429         2.432358
 H        -2.648229        -0.753937         0.868994
