19
Iteration:  2085charge 0 multiplicity 1
 O         0.303897        -0.400672         0.387000
 C        -0.664764         0.528456         0.694675
 C        -0.406528         1.727481         1.678975
 C        -1.887482         2.063981         1.244767
 C        -2.167075         3.474150         0.622550
 C        -1.276566         3.022963        -0.582299
 C        -1.454092         1.498461        -0.158508
 O        -2.741510         1.125355         1.855133
 C        -2.018781        -0.112760         1.620280
 H         1.006508         0.046221        -0.226818
 H        -0.291383         1.340741         2.703529
 H         0.368627         2.465393         1.296174
 H        -3.231133         3.429875         0.455812
 H        -1.782827         4.408899         1.204582
 H        -1.685397         3.201885        -1.576644
 H        -0.337798         3.684577        -0.710920
 H        -2.182583         1.172502        -0.887776
 H        -1.729736        -0.684582         2.652654
 H        -2.648011        -0.831315         1.134093
