19
Iteration:  3519
 O         0.266850        -0.363601         0.397974
 C        -0.712308         0.581249         0.777176
 C        -0.485416         1.740048         1.630854
 C        -1.932699         2.069001         1.226632
 C        -2.095201         3.473624         0.613794
 C        -1.268394         2.887103        -0.610376
 C        -1.588572         1.515700        -0.211540
 O        -2.676939         1.102597         1.931181
 C        -1.864404        -0.065572         1.573825
 H         1.052520         0.009695        -0.044591
 H        -0.552614         1.565386         2.759182
 H         0.301152         2.494269         1.425934
 H        -3.071657         3.775819         0.289147
 H        -1.771678         4.419851         1.271084
 H        -1.817477         2.893600        -1.556529
 H        -0.177638         3.370619        -0.617920
 H        -2.189879         0.957903        -0.852972
 H        -1.371769        -0.729647         2.465782
 H        -2.497123        -0.731684         0.955042
