19
Iteration:   513charge 0 multiplicity 1
 O         0.280497        -0.352228         0.247492
 C        -0.627356         0.565218         0.830119
 C        -0.373636         1.762605         1.719850
 C        -1.842919         2.072306         1.252709
 C        -2.132674         3.464279         0.546262
 C        -1.339608         2.977394        -0.641613
 C        -1.549054         1.506316        -0.075093
 O        -2.778533         1.139885         1.866118
 C        -1.887623        -0.137501         1.617291
 H         0.812955        -0.796455         0.852618
 H        -0.118184         1.618736         2.744710
 H         0.420469         2.448961         1.170280
 H        -3.207000         3.316290         0.438993
 H        -2.007328         4.467696         1.040399
 H        -1.983154         3.009079        -1.626259
 H        -0.335457         3.314379        -0.879149
 H        -2.444066         0.902731        -0.617833
 H        -1.645509        -0.522262         2.505903
 H        -2.506093        -0.618542         0.916932
