19
Iteration:  2895
 O         0.293776        -0.409593         0.408408
 C        -0.642595         0.597111         0.809733
 C        -0.444237         1.752039         1.709428
 C        -1.906830         2.096488         1.166534
 C        -2.219062         3.422752         0.648228
 C        -1.252741         3.095492        -0.608428
 C        -1.400652         1.446296        -0.184860
 O        -2.720930         1.087406         1.912528
 C        -1.898691        -0.030183         1.523572
 H        -0.346202        -0.838145        -0.282492
 H        -0.330049         1.442459         2.768664
 H         0.340577         2.293781         1.331498
 H        -3.240094         3.364055         0.307018
 H        -1.909103         4.186096         1.196610
 H        -1.805329         3.393280        -1.597703
 H        -0.296517         3.475959        -0.592950
 H        -2.192384         0.959731        -0.856331
 H        -1.736164        -0.689414         2.371160
 H        -2.480989        -0.721920         0.818419
