19
Iteration:   541charge 0 multiplicity 1
 O         0.271645        -0.334482         0.253917
 C        -0.667274         0.624841         0.713207
 C        -0.396361         1.756006         1.741364
 C        -1.884241         2.047076         1.185192
 C        -2.216880         3.451088         0.551441
 C        -1.317564         2.955004        -0.583719
 C        -1.528139         1.420933        -0.194064
 O        -2.650018         1.193336         1.955464
 C        -1.919357        -0.104816         1.596336
 H         0.617703        -0.809153         1.023800
 H        -0.386451         1.476066         2.876028
 H         0.465866         2.222921         1.446486
 H        -3.308102         3.497002         0.284830
 H        -1.991540         4.342874         1.114484
 H        -1.747229         3.199324        -1.490466
 H        -0.237928         3.163824        -0.471590
 H        -2.102894         0.811284        -0.751894
 H        -1.346703        -0.422348         2.609839
 H        -2.767033        -0.750585         1.241966
