19
Iteration:  3296
 O         0.207832        -0.429793         0.393539
 C        -0.703475         0.552684         0.730735
 C        -0.402084         1.759517         1.674253
 C        -1.848035         2.082369         1.217500
 C        -2.232602         3.467107         0.592560
 C        -1.286196         3.009378        -0.590230
 C        -1.498695         1.491067        -0.118873
 O        -2.675411         1.115471         1.855378
 C        -1.897874        -0.061798         1.602521
 H         1.181143        -0.232549         0.490586
 H        -0.214512         1.517664         2.707989
 H         0.356255         2.444005         1.147923
 H        -3.176725         3.175336         0.244733
 H        -1.988792         4.376907         1.162460
 H        -1.655652         2.972452        -1.740790
 H        -0.302402         3.348994        -0.652331
 H        -2.317209         1.091782        -0.721647
 H        -1.561542        -0.382359         2.617871
 H        -2.434040        -0.621824         0.822866
