19
Iteration:  1869charge 0 multiplicity 1
 O         0.272887        -0.396094         0.418805
 C        -0.697075         0.607639         0.685544
 C        -0.506823         1.771899         1.663101
 C        -1.907495         2.078581         1.219873
 C        -2.196628         3.544415         0.605557
 C        -1.177890         3.025365        -0.549569
 C        -1.463509         1.444292        -0.284071
 O        -2.697834         1.053536         2.037718
 C        -1.917013        -0.137874         1.558237
 H         0.208854        -0.455896        -0.486896
 H        -0.454866         1.490059         2.773869
 H         0.159041         2.633774         1.465273
 H        -3.166764         3.498584         0.145481
 H        -1.715747         4.280692         1.206636
 H        -1.465908         3.301385        -1.570583
 H        -0.098225         3.374034        -0.385888
 H        -2.255269         0.953312        -0.872164
 H        -1.436889        -0.730476         2.326679
 H        -2.594545        -0.611916         0.681823
