19
Iteration:  1886charge 0 multiplicity 1
 O         0.296115        -0.366296         0.356161
 C        -0.739680         0.496711         0.829239
 C        -0.421798         1.770580         1.721539
 C        -1.911080         2.091345         1.173535
 C        -2.163880         3.433621         0.585397
 C        -1.212404         3.025784        -0.596360
 C        -1.505462         1.555059        -0.101616
 O        -2.694162         1.051715         1.903493
 C        -1.939977        -0.104377         1.517056
 H         0.266123        -0.352771        -0.587494
 H        -0.275851         1.823274         2.841637
 H         0.422916         2.313090         1.307222
 H        -3.216282         3.565568         0.238656
 H        -1.812241         4.358503         1.245842
 H        -1.713506         3.284894        -1.598044
 H        -0.206298         3.290614        -0.478089
 H        -2.221836         1.054750        -0.773011
 H        -1.669585        -0.528801         2.537647
 H        -2.488909        -0.738030         0.932711
