19
Iteration:   637charge 0 multiplicity 1
 O         0.268260        -0.312867         0.286093
 C        -0.646370         0.544573         0.821552
 C        -0.433926         1.759459         1.636516
 C        -1.893476         2.113586         1.190451
 C        -2.129509         3.485971         0.640030
 C        -1.348522         2.941692        -0.662410
 C        -1.507065         1.395192        -0.096983
 O        -2.686405         1.095654         1.896566
 C        -1.932382        -0.020871         1.593910
 H         0.796297        -0.793365         0.852841
 H        -0.143641         1.767128         2.769521
 H         0.345194         2.322484         1.148150
 H        -3.196182         3.602377         0.297858
 H        -1.815030         4.288808         1.264903
 H        -1.827434         3.033110        -1.587146
 H        -0.280493         3.386295        -0.453325
 H        -2.332053         0.933338        -0.759582
 H        -1.695269        -0.630318         2.468466
 H        -2.483963        -0.799009         0.955770
