19
Iteration:  1435charge 0 multiplicity 1
 O         0.257834        -0.346507         0.272596
 C        -0.683177         0.581415         0.775758
 C        -0.434235         1.780666         1.696880
 C        -1.916169         2.062520         1.186138
 C        -2.136591         3.429416         0.624635
 C        -1.301173         2.990921        -0.654307
 C        -1.503480         1.466984        -0.255694
 O        -2.634658         1.104825         2.027670
 C        -1.927322        -0.091558         1.570782
 H         0.358801        -0.911114         1.021590
 H        -0.550884         1.593527         2.847665
 H         0.304059         2.535886         1.654837
 H        -3.115416         3.867559         0.329393
 H        -1.686297         4.220306         1.081325
 H        -1.779318         3.015784        -1.682061
 H        -0.307404         3.405952        -0.588569
 H        -2.310589         1.017925        -0.888788
 H        -1.508222        -0.537261         2.537988
 H        -2.563362        -0.718392         0.908721
