19
Iteration:  4595
 O         0.332800        -0.271427         0.296934
 C        -0.722675         0.532252         0.763389
 C        -0.372258         1.785439         1.545627
 C        -1.827428         2.115889         1.176610
 C        -2.231802         3.467988         0.610311
 C        -1.284946         2.868767        -0.660419
 C        -1.609589         1.387886        -0.125832
 O        -2.692313         1.170594         1.982712
 C        -1.902701        -0.075183         1.697898
 H         0.385817        -1.050326         0.876787
 H        -0.070895         1.612537         2.580068
 H         0.395070         2.480524         1.156995
 H        -3.231066         3.630340         0.125326
 H        -1.842974         4.459872         1.046017
 H        -1.670802         3.038091        -1.706116
 H        -0.294229         3.082390        -0.747615
 H        -2.452586         0.875025        -0.506363
 H        -1.463843        -0.441839         2.670391
 H        -2.600976        -0.795797         1.298531
