19
Iteration:  3071charge 0 multiplicity 1
 O         0.241005        -0.335128         0.300392
 C        -0.738687         0.529704         0.783136
 C        -0.467008         1.770002         1.721226
 C        -1.884662         2.066270         1.163690
 C        -2.135544         3.461435         0.556934
 C        -1.170134         2.971150        -0.598876
 C        -1.575203         1.471502        -0.123236
 O        -2.721343         1.033275         1.940288
 C        -1.864218        -0.060731         1.584634
 H         0.970599         0.045471         0.699704
 H        -0.204060         1.656255         2.783543
 H         0.343846         2.479562         1.264549
 H        -3.204233         3.708076         0.131637
 H        -1.869662         4.523884         0.940256
 H        -1.710682         3.244441        -1.509368
 H        -0.101627         3.268040        -0.648223
 H        -2.495879         1.040988        -0.689001
 H        -1.492599        -0.561450         2.502997
 H        -2.545896        -0.828499         0.984076
