19
Iteration:   884
 O         0.334433        -0.295790         0.297379
 C        -0.733978         0.526867         0.744017
 C        -0.461294         1.722431         1.620842
 C        -1.859854         2.069762         1.209622
 C        -2.152828         3.456443         0.574784
 C        -1.375741         3.015193        -0.653744
 C        -1.459858         1.516459        -0.182006
 O        -2.712657         1.114504         2.024095
 C        -1.886761        -0.116696         1.591395
 H         0.419788        -1.008782         1.085814
 H        -0.322849         1.435582         2.688696
 H         0.315766         2.354697         1.280107
 H        -3.234378         3.657355         0.605058
 H        -1.579849         4.199440         1.134056
 H        -1.656054         3.071206        -1.772997
 H        -0.427525         3.416413        -0.664590
 H        -2.247332         1.075452        -0.584736
 H        -1.461456        -0.602323         2.541177
 H        -2.606869        -0.711182         1.040989
