19
Iteration:   291charge 0 multiplicity 1
 O         0.232490        -0.356111         0.276145
 C        -0.676095         0.600483         0.677981
 C        -0.330911         1.741253         1.653371
 C        -1.918013         2.086090         1.243895
 C        -2.242623         3.452552         0.569472
 C        -1.264591         2.907171        -0.572218
 C        -1.519221         1.408076        -0.161236
 O        -2.697858         1.173230         1.964794
 C        -1.892438        -0.044782         1.627735
 H         0.847968        -0.368818         1.051410
 H        -0.057568         1.298659         2.747230
 H         0.311842         2.543325         1.205978
 H        -3.318618         3.474958         0.285773
 H        -1.898583         4.300330         1.139108
 H        -1.493100         3.094941        -1.614014
 H        -0.145402         3.367562        -0.504697
 H        -2.426132         0.984846        -0.846761
 H        -1.806256        -0.533378         2.543533
 H        -2.461421        -0.777183         1.026548
