19
Iteration:  1920charge 0 multiplicity 1
 O         0.322049        -0.397766         0.379984
 C        -0.659858         0.590533         0.729139
 C        -0.320744         1.713538         1.785365
 C        -1.866615         2.053207         1.222457
 C        -2.155262         3.390360         0.655563
 C        -1.323903         2.953991        -0.617482
 C        -1.504675         1.497523        -0.187876
 O        -2.813167         1.138802         1.864982
 C        -1.977896         0.023314         1.521763
 H         0.662835        -0.094242        -0.521867
 H        -0.551094         1.437872         2.897494
 H         0.444991         2.406666         1.585919
 H        -3.249664         3.468583         0.447653
 H        -1.683971         4.295406         1.320920
 H        -1.668807         3.372734        -1.658269
 H        -0.280595         3.205861        -0.649003
 H        -2.144893         0.878021        -0.819209
 H        -1.566377        -0.464697         2.499054
 H        -2.417314        -0.766764         1.034205
