19
Iteration:  3165
 O         0.254107        -0.401065         0.303648
 C        -0.694063         0.621485         0.726546
 C        -0.382207         1.810717         1.703699
 C        -1.951233         2.101228         1.175024
 C        -2.258103         3.422023         0.592985
 C        -1.181884         2.940113        -0.575340
 C        -1.514434         1.449584        -0.168507
 O        -2.676691         1.141393         1.937333
 C        -1.875814        -0.061120         1.572803
 H         0.398644        -1.133378         1.036860
 H        -0.180935         1.714706         2.784388
 H         0.249465         2.579329         1.313581
 H        -3.243619         3.360296         0.286372
 H        -2.248678         4.371838         1.143886
 H        -1.676664         3.276573        -1.609850
 H        -0.187774         3.332634        -0.440111
 H        -2.229546         0.956918        -0.771073
 H        -1.335555        -0.633587         2.439885
 H        -2.506763        -0.808241         0.989975
