19
Iteration:  2375
 O         0.305421        -0.292727         0.338147
 C        -0.713134         0.537264         0.754191
 C        -0.445342         1.721321         1.678332
 C        -1.913278         2.052847         1.169327
 C        -2.221456         3.419667         0.686783
 C        -1.129721         2.972105        -0.547816
 C        -1.512269         1.466351        -0.171513
 O        -2.733645         1.135222         1.900002
 C        -1.895663        -0.081995         1.592320
 H         0.001489        -0.659793        -0.430097
 H        -0.342603         1.713126         2.714173
 H         0.359006         2.446224         1.334882
 H        -3.246243         3.699793         0.280318
 H        -2.043605         4.333717         1.174302
 H        -1.219680         3.343139        -1.548017
 H        -0.129089         3.248787        -0.353078
 H        -2.335223         1.103099        -0.851599
 H        -1.714689        -0.747915         2.480066
 H        -2.521504        -0.743670         0.816224
