19
Iteration:  1562charge 0 multiplicity 1
 O         0.359089        -0.338361         0.461223
 C        -0.673519         0.499642         0.700303
 C        -0.402811         1.668527         1.607197
 C        -1.892367         2.092688         1.194809
 C        -2.220748         3.471931         0.657808
 C        -1.264042         3.026097        -0.556480
 C        -1.601917         1.471176        -0.212389
 O        -2.655627         1.129134         1.915887
 C        -1.959654        -0.059440         1.557483
 H         0.186661        -0.770746        -0.482194
 H        -0.172879         1.633169         2.704626
 H         0.379272         2.334368         1.165519
 H        -3.295819         3.641790         0.354679
 H        -1.683073         4.276836         1.290406
 H        -1.578510         3.391516        -1.539404
 H        -0.202309         3.374592        -0.426783
 H        -2.485877         1.022784        -0.775172
 H        -1.590072        -0.516056         2.416218
 H        -2.644977        -0.820492         1.240353
