19
Iteration:  1466
 O         0.293884        -0.344912         0.278542
 C        -0.711745         0.559288         0.738720
 C        -0.316187         1.754609         1.544847
 C        -1.891249         2.070006         1.233343
 C        -2.209035         3.484063         0.653859
 C        -1.237554         2.938483        -0.526127
 C        -1.580046         1.441240        -0.202796
 O        -2.730498         1.146798         1.935461
 C        -1.946208        -0.072948         1.617618
 H         0.926771        -0.639630         1.069398
 H        -0.209727         1.718478         2.700542
 H         0.400464         2.362279         1.163506
 H        -3.226519         3.541424         0.154899
 H        -1.975401         4.434087         1.125945
 H        -1.538318         3.237776        -1.576286
 H        -0.137970         3.261961        -0.358802
 H        -2.479255         1.033718        -0.825628
 H        -1.631111        -0.638264         2.610524
 H        -2.459087        -0.969575         1.153706
