19
Iteration:  3307charge 0 multiplicity 1
 O         0.214044        -0.490267         0.372035
 C        -0.686200         0.531762         0.794311
 C        -0.438150         1.764423         1.683826
 C        -1.872205         2.115255         1.267801
 C        -2.265123         3.452235         0.540870
 C        -1.237018         2.995676        -0.618488
 C        -1.456725         1.491171        -0.147112
 O        -2.676904         1.142695         1.898139
 C        -1.877306        -0.079060         1.543321
 H         1.095832         0.063844         0.187878
 H        -0.198183         1.668262         2.731138
 H         0.306546         2.529114         1.270479
 H        -3.264397         3.587952         0.196886
 H        -2.141761         4.446490         1.028944
 H        -1.818931         3.404748        -1.525606
 H        -0.270924         3.397194        -0.607131
 H        -2.330015         1.005843        -0.570545
 H        -1.496386        -0.655853         2.440691
 H        -2.501933        -0.885481         1.113088
