19
Iteration:  2756charge 0 multiplicity 1
 O         0.355790        -0.349575         0.426372
 C        -0.702278         0.456131         0.769259
 C        -0.402003         1.757539         1.647295
 C        -1.964025         2.051649         1.118850
 C        -2.229283         3.504538         0.682323
 C        -1.236238         3.057928        -0.583762
 C        -1.463911         1.480356        -0.180099
 O        -2.685277         1.123221         1.947533
 C        -1.943434        -0.084922         1.508279
 H         0.147312        -1.095175        -0.226759
 H        -0.318975         1.567382         2.795197
 H         0.370688         2.395007         1.330521
 H        -3.272276         3.568705         0.133852
 H        -1.812089         4.341142         1.263903
 H        -1.629412         3.388618        -1.607582
 H        -0.309828         3.407982        -0.254722
 H        -2.107363         0.971497        -0.878870
 H        -1.781536        -0.739151         2.345188
 H        -2.731488        -0.593166         0.938541
