19
Iteration:   213
 O         0.253464        -0.379971         0.259073
 C        -0.669128         0.564343         0.796917
 C        -0.346233         1.855927         1.765656
 C        -1.862258         2.097698         1.245829
 C        -2.155505         3.445845         0.596187
 C        -1.363140         2.896767        -0.689037
 C        -1.507074         1.523267        -0.111832
 O        -2.676058         1.145802         1.858709
 C        -1.915515        -0.147143         1.596380
 H         0.537009        -1.016500         1.047770
 H        -0.318499         1.664206         2.841616
 H         0.344872         2.628761         1.278324
 H        -3.200610         3.603172         0.273298
 H        -1.835674         4.331515         1.152177
 H        -2.041927         3.008022        -1.509831
 H        -0.268176         3.291693        -0.821703
 H        -2.445031         1.007106        -0.646672
 H        -1.566323        -0.645955         2.467212
 H        -2.630285        -0.695796         0.987130
