19
Iteration:  3560charge 0 multiplicity 1
 O         0.262979        -0.413256         0.321876
 C        -0.683734         0.555922         0.757027
 C        -0.380467         1.766685         1.611275
 C        -1.905351         2.081311         1.192876
 C        -2.259378         3.418715         0.629362
 C        -1.301401         2.989249        -0.579450
 C        -1.466206         1.507166        -0.136803
 O        -2.654201         1.156705         1.877516
 C        -1.935089        -0.070552         1.617482
 H         0.941887        -0.535158         0.977337
 H        -0.065472         1.610180         2.670248
 H         0.431643         2.261001         1.167747
 H        -3.250563         3.316367         0.215642
 H        -2.087517         4.352724         1.280658
 H        -1.693785         3.202347        -1.579174
 H        -0.267863         3.287131        -0.615570
 H        -2.298976         1.159759        -0.735016
 H        -1.783300        -0.504837         2.595221
 H        -2.504855        -0.758519         1.087704
