19
Iteration:  4999
 O         0.287574        -0.272969         0.276200
 C        -0.708726         0.534859         0.729125
 C        -0.384931         1.902980         1.629253
 C        -1.889091         2.080828         1.199397
 C        -2.137855         3.455341         0.544669
 C        -1.269767         2.843416        -0.685491
 C        -1.597300         1.388697        -0.141596
 O        -2.672931         1.145515         2.080999
 C        -1.947481        -0.077204         1.652925
 H         0.656426        -0.842414         1.044974
 H        -0.107169         1.725837         2.664174
 H         0.162491         2.745846         1.224298
 H        -3.096915         3.699225         0.197705
 H        -1.638827         4.238094         0.980698
 H        -1.864967         3.005304        -1.614384
 H        -0.197350         2.824258        -0.779731
 H        -2.311414         0.740827        -0.759973
 H        -1.687440        -0.632634         2.559309
 H        -2.544727        -0.737662         0.990904
