19
Iteration:  2961charge 0 multiplicity 1
 O         0.423881        -0.238900         0.390877
 C        -0.716496         0.569868         0.743058
 C        -0.498721         1.750030         1.659294
 C        -1.920614         2.040656         1.173380
 C        -2.098671         3.434443         0.666478
 C        -1.239656         2.953370        -0.568677
 C        -1.531962         1.445739        -0.197205
 O        -2.702253         1.114051         1.906614
 C        -2.016205        -0.045785         1.547638
 H         0.076767        -1.084973        -0.054752
 H        -0.471973         1.424414         2.714815
 H         0.330629         2.292856         1.267539
 H        -3.160682         3.720249         0.438382
 H        -1.603518         4.115064         1.344047
 H        -1.591136         3.227935        -1.626010
 H        -0.284553         3.365075        -0.530927
 H        -2.362648         0.886433        -0.729468
 H        -1.542712        -0.598148         2.358540
 H        -2.679488        -0.854777         1.133390
