19
Iteration:  3816charge 0 multiplicity 1
 O         0.342570        -0.394711         0.388282
 C        -0.720741         0.557417         0.791608
 C        -0.392778         1.746560         1.628687
 C        -1.904944         2.102874         1.188000
 C        -2.276465         3.483603         0.659065
 C        -1.307823         2.914062        -0.604459
 C        -1.515712         1.340864        -0.216387
 O        -2.624170         1.223159         1.911441
 C        -1.894392        -0.037327         1.642604
 H         0.408431        -0.126365        -0.632216
 H        -0.400138         1.738009         2.760440
 H         0.461120         2.253231         1.221285
 H        -3.411091         3.534227         0.396819
 H        -1.898828         4.296094         1.303027
 H        -1.727570         3.223069        -1.661761
 H        -0.271012         3.224166        -0.569942
 H        -2.252000         0.907736        -0.832975
 H        -1.670082        -0.705918         2.590102
 H        -2.589762        -0.628950         0.928997
