19
Iteration:  3106
 O         0.340120        -0.352209         0.336343
 C        -0.654113         0.583991         0.763181
 C        -0.418185         1.739543         1.744169
 C        -1.908633         2.086369         1.161353
 C        -2.089978         3.409113         0.646560
 C        -1.372249         2.947357        -0.639301
 C        -1.506368         1.408934        -0.207755
 O        -2.754497         1.152944         1.921955
 C        -1.953374        -0.027520         1.568433
 H         1.007004        -0.235326         0.941383
 H        -0.299555         1.498261         2.838975
 H         0.338268         2.462759         1.214534
 H        -3.187442         3.611624         0.415876
 H        -1.498780         4.182156         1.127649
 H        -1.855342         3.260635        -1.494248
 H        -0.286982         3.383402        -0.745056
 H        -2.448429         0.894287        -0.719444
 H        -1.651521        -0.672982         2.394941
 H        -2.670777        -0.703095         0.812060
