19
Iteration:  4652charge 0 multiplicity 1
 O         0.200792        -0.453489         0.303725
 C        -0.664199         0.555374         0.804654
 C        -0.398543         1.864485         1.653649
 C        -1.857291         2.113316         1.236523
 C        -2.273014         3.389897         0.576055
 C        -1.322905         2.928008        -0.663313
 C        -1.527351         1.455175        -0.126711
 O        -2.637158         1.175098         1.981650
 C        -1.829146        -0.001185         1.562185
 H         0.803256        -0.800173         0.910104
 H        -0.110342         1.757046         2.695311
 H         0.234778         2.418127         0.928474
 H        -3.355386         3.474164         0.213906
 H        -1.820419         4.364666         0.880410
 H        -1.837940         2.875485        -1.632887
 H        -0.331999         3.292697        -0.689805
 H        -2.240074         0.865455        -0.624848
 H        -1.463353        -0.501339         2.533381
 H        -2.445895        -0.682615         1.066534
