19
Iteration:  4241
 O         0.354619        -0.323968         0.421828
 C        -0.699787         0.538451         0.819733
 C        -0.288843         1.781678         1.595854
 C        -1.842990         2.075940         1.199094
 C        -2.274942         3.391786         0.591730
 C        -1.330156         2.936790        -0.691408
 C        -1.521728         1.466029        -0.169381
 O        -2.691724         1.206322         1.931610
 C        -1.940496        -0.082810         1.650798
 H        -0.124546        -0.868275        -0.242723
 H        -0.127941         1.659040         2.646963
 H         0.459263         2.338660         1.019566
 H        -3.300331         3.360490         0.515429
 H        -1.920481         4.244281         1.210942
 H        -1.808542         3.225220        -1.641715
 H        -0.342541         3.384738        -0.660640
 H        -2.400147         0.942348        -0.694267
 H        -1.625376        -0.643350         2.523476
 H        -2.636655        -0.781279         1.078705
