19
Iteration:  3042
 O         0.234220        -0.450267         0.341036
 C        -0.670829         0.558430         0.704875
 C        -0.484759         1.774256         1.678171
 C        -1.902192         2.043016         1.159545
 C        -2.298731         3.437568         0.616044
 C        -1.188164         2.951557        -0.530254
 C        -1.459389         1.495894        -0.202758
 O        -2.684850         1.154916         1.940143
 C        -1.882610        -0.031236         1.615289
 H         1.058576        -0.059986         0.035593
 H        -0.304107         1.459822         2.727848
 H         0.327037         2.534332         1.458115
 H        -3.293420         3.487438         0.225072
 H        -1.979590         4.317538         1.025454
 H        -1.580907         3.222922        -1.449308
 H        -0.100151         3.331471        -0.270214
 H        -2.238644         0.978264        -0.853681
 H        -1.489627        -0.438939         2.525424
 H        -2.570612        -0.599457         0.948262
