19
Iteration:    74
 O         0.280647        -0.389237         0.375521
 C        -0.736904         0.539561         0.782760
 C        -0.464514         1.835134         1.513000
 C        -1.926345         2.070015         1.227074
 C        -2.161427         3.522551         0.566840
 C        -1.231065         2.982540        -0.620386
 C        -1.556536         1.504106        -0.208806
 O        -2.638828         1.066209         2.025330
 C        -1.908857        -0.129202         1.594708
 H         0.709599        -0.652953         1.132648
 H        -0.151759         1.664456         2.653053
 H         0.069955         2.412618         0.898426
 H        -3.221840         3.631500         0.224480
 H        -1.823736         4.443447         1.069343
 H        -1.553339         3.223625        -1.592992
 H        -0.160801         3.303763        -0.390411
 H        -2.246346         0.960656        -0.828065
 H        -1.451514        -0.678528         2.480017
 H        -2.629751        -0.770498         1.039568
