19
Iteration:  3990
 O         0.372379        -0.430050         0.423343
 C        -0.704240         0.488969         0.763488
 C        -0.380685         1.708391         1.625746
 C        -1.863163         2.083717         1.179667
 C        -2.246235         3.417060         0.561281
 C        -1.335983         3.116597        -0.567044
 C        -1.585931         1.468135        -0.189977
 O        -2.638937         1.207313         1.904070
 C        -1.864987        -0.070022         1.640536
 H         0.150984        -0.888284        -0.327700
 H        -0.231283         1.612298         2.756359
 H         0.477848         2.362050         1.261211
 H        -3.281439         3.317250         0.276138
 H        -2.180680         4.434007         1.105709
 H        -1.875326         3.195454        -1.635207
 H        -0.295743         3.395712        -0.462024
 H        -2.454028         1.058009        -0.768120
 H        -1.742250        -0.490161         2.638532
 H        -2.534693        -0.717303         1.118068
