19
Iteration:  1783charge 0 multiplicity 1
 O         0.326946        -0.359622         0.404602
 C        -0.708253         0.645953         0.739509
 C        -0.499608         1.742748         1.784255
 C        -1.889266         2.066568         1.169559
 C        -2.072311         3.458428         0.651598
 C        -1.301594         2.975411        -0.545425
 C        -1.544567         1.477308        -0.227823
 O        -2.660998         1.080207         1.894040
 C        -1.909827        -0.065539         1.494791
 H        -0.179253        -0.912498        -0.201179
 H        -0.557885         1.425439         2.879560
 H         0.321301         2.455432         1.371013
 H        -3.210006         3.652946         0.455168
 H        -1.698577         4.306761         1.207738
 H        -1.607419         3.281832        -1.545303
 H        -0.222406         3.358747        -0.575464
 H        -2.238593         0.810610        -0.854519
 H        -1.554164        -0.670081         2.301367
 H        -2.613155        -0.579468         0.752492
