19
Iteration:   366charge 0 multiplicity 1
 O         0.327858        -0.300146         0.367087
 C        -0.739543         0.566060         0.709373
 C        -0.446389         1.819800         1.529794
 C        -1.822278         2.043824         1.242744
 C        -2.174164         3.385922         0.665079
 C        -1.290850         2.925872        -0.569923
 C        -1.632584         1.422158        -0.195080
 O        -2.663726         1.192336         1.907027
 C        -1.896712        -0.081234         1.600426
 H         0.575385        -0.967383         1.123605
 H        -0.170325         1.482041         2.605827
 H         0.293468         2.654387         1.328128
 H        -3.241889         3.525388         0.352113
 H        -1.784228         4.258179         1.164636
 H        -1.422562         3.238233        -1.556393
 H        -0.155945         3.196919        -0.658137
 H        -2.565516         1.075371        -0.791074
 H        -1.483172        -0.671557         2.440419
 H        -2.657880        -0.782432         1.172674
