19
Iteration:  1000
 O         0.225146        -0.370710         0.228429
 C        -0.653787         0.592371         0.814549
 C        -0.424775         1.828857         1.689701
 C        -1.929640         2.070905         1.251099
 C        -2.127828         3.430590         0.638515
 C        -1.326540         2.921408        -0.669360
 C        -1.444825         1.442180        -0.086012
 O        -2.720129         1.129497         1.949030
 C        -1.885687        -0.052971         1.540053
 H         0.804095        -0.837204         0.972794
 H        -0.170132         1.643880         2.717646
 H         0.300312         2.531809         1.191035
 H        -3.186376         3.575503         0.645135
 H        -1.714143         4.300946         1.198615
 H        -1.935218         2.924403        -1.660917
 H        -0.427056         3.479815        -1.004730
 H        -2.299971         0.931775        -0.749859
 H        -1.550155        -0.655365         2.393506
 H        -2.404012        -0.567446         0.675668
