19
Iteration:   353charge 0 multiplicity 1
 O         0.318286        -0.327629         0.338670
 C        -0.713879         0.554874         0.716623
 C        -0.386602         1.735267         1.659452
 C        -1.922857         2.081943         1.174607
 C        -2.131576         3.421309         0.640853
 C        -1.318597         2.933516        -0.594864
 C        -1.588167         1.404502        -0.228512
 O        -2.707396         1.190704         1.951451
 C        -1.854526        -0.035507         1.572242
 H         0.520472        -0.785525         1.162512
 H        -0.203477         1.620973         2.680378
 H         0.391663         2.364266         1.032558
 H        -3.195496         3.546340         0.379785
 H        -1.827359         4.283050         1.259260
 H        -1.912990         3.208016        -1.431207
 H        -0.320532         3.288249        -0.454470
 H        -2.347020         0.883577        -0.707635
 H        -1.445849        -0.401893         2.574463
 H        -2.455506        -0.696640         0.932672
