19
Iteration:  4312
 O         0.273383        -0.376999         0.316966
 C        -0.706210         0.561746         0.714999
 C        -0.415674         1.855517         1.583072
 C        -1.910122         2.111325         1.207139
 C        -2.200416         3.437429         0.616346
 C        -1.311214         2.841189        -0.635362
 C        -1.608687         1.444446        -0.162080
 O        -2.617122         1.161600         1.961094
 C        -1.887100        -0.052592         1.683429
 H         1.076025        -0.302297         0.825931
 H        -0.258779         1.616626         2.690766
 H         0.431325         2.418540         1.108095
 H        -3.360986         3.572619         0.244286
 H        -1.748809         4.319875         1.079245
 H        -1.579621         2.845682        -1.722460
 H        -0.228566         3.176726        -0.552597
 H        -2.438312         0.983917        -0.666815
 H        -1.540041        -0.494848         2.640378
 H        -2.400236        -0.810013         1.172844
