19
Iteration:   612
 O         0.341269        -0.375260         0.263676
 C        -0.670819         0.550775         0.699535
 C        -0.371220         1.736562         1.831955
 C        -1.872312         2.067200         1.221964
 C        -2.130981         3.406410         0.645446
 C        -1.411879         2.917321        -0.714953
 C        -1.503285         1.487188        -0.143886
 O        -2.738070         1.213644         1.899912
 C        -1.928629        -0.044619         1.576404
 H         0.718399        -0.799152         1.020483
 H        -0.239655         1.531923         2.814936
 H         0.340998         2.613283         1.457677
 H        -3.181617         3.482771         0.409924
 H        -1.858063         4.321271         1.237319
 H        -1.988911         2.916609        -1.705659
 H        -0.447978         3.411185        -0.665650
 H        -2.290171         0.989611        -0.904803
 H        -1.417032        -0.263208         2.564872
 H        -2.632631        -0.799058         1.109729
