19
Iteration:  1361
 O         0.232168        -0.379552         0.298624
 C        -0.671432         0.550467         0.658546
 C        -0.471758         1.809592         1.636842
 C        -1.950883         2.057108         1.149071
 C        -2.201626         3.364816         0.612832
 C        -1.195520         2.933862        -0.543499
 C        -1.532277         1.496136        -0.214943
 O        -2.652247         1.191481         2.032380
 C        -1.881139        -0.072306         1.581488
 H         0.671252        -0.553980         1.099899
 H        -0.342174         1.415880         2.733137
 H         0.402350         2.549717         1.407545
 H        -3.312948         3.565519         0.291969
 H        -1.975376         4.252691         1.440318
 H        -1.548771         3.232335        -1.657499
 H        -0.223089         3.229639        -0.374950
 H        -2.239926         1.124548        -0.909261
 H        -1.270640        -0.503141         2.354138
 H        -2.603054        -0.712522         1.109786
