19
Iteration:  1725
 O         0.322262        -0.343861         0.359040
 C        -0.699489         0.578463         0.712696
 C        -0.485095         1.674622         1.738989
 C        -1.858029         2.065132         1.200542
 C        -2.200265         3.426664         0.721897
 C        -1.277600         2.999802        -0.606549
 C        -1.449076         1.484555        -0.181274
 O        -2.711790         1.207851         1.837847
 C        -1.876004        -0.050062         1.539417
 H        -0.008909        -1.077285        -0.250420
 H        -0.471785         1.264266         2.881068
 H         0.335400         2.348983         1.594983
 H        -3.246706         3.335297         0.506581
 H        -1.802000         4.255275         1.391379
 H        -1.602632         3.174632        -1.698107
 H        -0.310858         3.407206        -0.384685
 H        -2.263562         1.025249        -0.749343
 H        -1.623915        -0.662033         2.443203
 H        -2.636321        -0.767970         0.965357
