19
Iteration:  1714
 O         0.296007        -0.389898         0.357701
 C        -0.632300         0.576352         0.776079
 C        -0.432091         1.703058         1.789540
 C        -1.861944         2.077014         1.215882
 C        -2.187128         3.441262         0.659206
 C        -1.274718         3.007164        -0.576406
 C        -1.465346         1.525061        -0.200104
 O        -2.709092         1.108341         1.840460
 C        -1.934529        -0.058694         1.531998
 H        -0.326183        -0.785491        -0.408336
 H        -0.444798         1.432013         2.991977
 H         0.306722         2.455685         1.567466
 H        -3.221030         3.664083         0.497342
 H        -1.943881         4.404640         1.223963
 H        -1.909158         3.208273        -1.518631
 H        -0.287636         3.383155        -0.802941
 H        -2.158523         1.007169        -0.871749
 H        -1.487635        -0.523667         2.447166
 H        -2.470426        -0.728678         0.713700
