19
Iteration:  1243charge 0 multiplicity 1
 O         0.221632        -0.399932         0.297289
 C        -0.725583         0.599482         0.742369
 C        -0.443082         1.853277         1.696062
 C        -1.933968         2.081909         1.174545
 C        -2.215646         3.434703         0.596399
 C        -1.204272         2.941199        -0.573027
 C        -1.578246         1.470945        -0.160435
 O        -2.648344         1.132060         1.973514
 C        -1.789584        -0.085347         1.536948
 H         0.631111        -0.985779         0.993149
 H        -0.325004         1.556313         2.684405
 H         0.378593         2.515037         1.298788
 H        -3.185754         3.533093         0.185860
 H        -1.955569         4.243350         1.293517
 H        -1.543239         3.201216        -1.670390
 H        -0.176249         3.291513        -0.469036
 H        -2.340233         1.018617        -0.833221
 H        -1.509130        -0.587669         2.515106
 H        -2.481463        -0.783079         0.873335
