19
Iteration:   877
 O         0.359071        -0.290220         0.323995
 C        -0.744697         0.534569         0.707141
 C        -0.461421         1.714044         1.623906
 C        -1.911492         2.083717         1.164481
 C        -2.156875         3.454392         0.662422
 C        -1.337134         2.982191        -0.670987
 C        -1.486685         1.497430        -0.232226
 O        -2.690259         1.157242         2.040401
 C        -1.883955        -0.149692         1.590827
 H         0.449754        -0.967173         1.014265
 H        -0.262755         1.491525         2.718785
 H         0.415736         2.214429         1.219396
 H        -3.266621         3.704294         0.490569
 H        -1.779016         4.363561         1.140351
 H        -1.658990         3.198279        -1.644645
 H        -0.259539         3.555878        -0.569530
 H        -2.367273         0.871304        -0.706846
 H        -1.475453        -0.618040         2.556100
 H        -2.724240        -0.813524         1.160969
