19
Iteration:  4320charge 0 multiplicity 1
 O         0.303104        -0.348182         0.279106
 C        -0.675302         0.484347         0.709563
 C        -0.401495         1.824920         1.592856
 C        -1.879259         2.050208         1.195621
 C        -2.208557         3.419018         0.606349
 C        -1.314209         2.841640        -0.688983
 C        -1.605180         1.412021        -0.122866
 O        -2.683460         1.240756         2.002858
 C        -1.882255        -0.035745         1.658288
 H         0.909340        -0.297290         0.958729
 H        -0.116291         1.723317         2.704402
 H         0.357762         2.567612         1.276988
 H        -3.234916         3.552151         0.370347
 H        -1.985374         4.214736         1.275517
 H        -1.604470         3.146650        -1.677142
 H        -0.231340         3.249240        -0.530201
 H        -2.348314         0.923577        -0.823256
 H        -1.484780        -0.346896         2.660842
 H        -2.600215        -0.705345         1.217318
