19
Iteration:  4638
 O         0.172253        -0.433993         0.281520
 C        -0.661353         0.583497         0.792853
 C        -0.376949         1.897048         1.630734
 C        -1.897369         2.092451         1.152351
 C        -2.229949         3.486528         0.560900
 C        -1.350067         2.887392        -0.674105
 C        -1.514837         1.396527        -0.168748
 O        -2.584054         1.137213         1.953307
 C        -1.838391        -0.051531         1.695830
 H         0.645924        -0.880418         1.154579
 H        -0.380511         1.835596         2.733491
 H         0.439982         2.624532         1.390999
 H        -3.385219         3.568305         0.425214
 H        -2.008853         4.401820         1.383215
 H        -1.711521         3.150261        -1.715562
 H        -0.344200         3.225776        -0.543768
 H        -2.356449         0.968859        -0.730248
 H        -1.534872        -0.609560         2.595724
 H        -2.363693        -0.772959         1.023548
