19
Iteration:  3014charge 0 multiplicity 1
 O         0.245717        -0.464843         0.458529
 C        -0.666485         0.546655         0.807777
 C        -0.390672         1.798918         1.689132
 C        -1.828791         2.056712         1.224121
 C        -2.259533         3.444814         0.627230
 C        -1.299802         3.064443        -0.622903
 C        -1.460758         1.550592        -0.182783
 O        -2.695335         1.124433         1.850090
 C        -1.917652        -0.132827         1.543357
 H         0.574641        -0.360331        -0.512673
 H        -0.171416         1.562752         2.725875
 H         0.383623         2.359112         1.261911
 H        -3.329617         3.302727         0.332860
 H        -1.890522         4.475307         1.094621
 H        -1.773750         3.414529        -1.611789
 H        -0.340051         3.419201        -0.527266
 H        -2.220697         1.014297        -0.676052
 H        -1.659964        -0.726316         2.496208
 H        -2.510233        -0.702138         0.816863
