19
Iteration:   493charge 0 multiplicity 1
 O         0.265629        -0.353465         0.297594
 C        -0.718443         0.566238         0.752481
 C        -0.393232         1.840685         1.672638
 C        -1.895754         2.049970         1.248081
 C        -2.198675         3.478681         0.621702
 C        -1.297666         2.856295        -0.631833
 C        -1.488499         1.432465        -0.175914
 O        -2.690053         1.088064         1.959485
 C        -1.909564         0.002146         1.528887
 H         0.706677        -0.668431         1.068001
 H        -0.197280         1.629088         2.663422
 H         0.338063         2.681432         1.218773
 H        -3.201992         3.855614         0.444768
 H        -1.670288         4.202615         1.279408
 H        -1.760785         3.031620        -1.662636
 H        -0.307664         3.272728        -0.495573
 H        -2.281668         0.912364        -0.753570
 H        -1.545571        -0.471694         2.410720
 H        -2.486269        -0.651523         0.878163
