19
Iteration:  4806charge 0 multiplicity 1
 O         0.198119        -0.427307         0.341365
 C        -0.674581         0.546950         0.749466
 C        -0.409159         1.908486         1.633654
 C        -1.836667         2.072911         1.186813
 C        -2.273872         3.401939         0.538872
 C        -1.285107         2.908724        -0.681726
 C        -1.606050         1.462396        -0.144517
 O        -2.518342         1.162842         2.034859
 C        -1.874277        -0.069527         1.555949
 H         0.652106        -0.789549         1.145813
 H        -0.294420         2.022240         2.757776
 H         0.430254         2.400221         1.170506
 H        -3.412529         3.383478         0.450037
 H        -2.125443         4.409360         1.163218
 H        -1.652809         3.025242        -1.633095
 H        -0.288805         3.374535        -0.687745
 H        -2.437529         0.991290        -0.622202
 H        -1.592155        -0.546345         2.531253
 H        -2.649777        -0.555877         1.000131
