19
Iteration:  3099charge 0 multiplicity 1
 O         0.332041        -0.349303         0.314427
 C        -0.654413         0.538841         0.765995
 C        -0.400265         1.773004         1.769124
 C        -1.871049         2.025002         1.184611
 C        -2.117654         3.456900         0.635958
 C        -1.354386         2.933521        -0.621903
 C        -1.565643         1.391832        -0.188858
 O        -2.773386         1.172978         1.928337
 C        -1.937191        -0.035633         1.488843
 H         1.024368        -0.086547         0.976355
 H        -0.287794         1.591867         2.847788
 H         0.222036         2.500310         1.368709
 H        -3.093875         3.754064         0.482279
 H        -1.538304         4.291141         0.991545
 H        -1.747059         3.300047        -1.646419
 H        -0.294055         3.209640        -0.681086
 H        -2.255487         0.845193        -0.756963
 H        -1.645611        -0.561563         2.441729
 H        -2.537098        -0.760125         1.043514
