19
Iteration:   350charge 0 multiplicity 1
 O         0.309499        -0.336318         0.328600
 C        -0.696367         0.549898         0.727986
 C        -0.381727         1.722284         1.653943
 C        -1.931723         2.086197         1.161486
 C        -2.136858         3.443907         0.635005
 C        -1.338409         2.937791        -0.601033
 C        -1.551655         1.423247        -0.214208
 O        -2.712608         1.161701         1.969649
 C        -1.863427        -0.024985         1.574049
 H         0.544365        -0.756956         1.137901
 H        -0.194461         1.703849         2.713466
 H         0.411121         2.285053         1.160501
 H        -3.182153         3.582659         0.385636
 H        -1.839148         4.300724         1.284794
 H        -1.929757         3.207646        -1.548020
 H        -0.321811         3.217522        -0.571279
 H        -2.296691         0.890489        -0.759433
 H        -1.510883        -0.339641         2.593133
 H        -2.445571        -0.688280         0.940400
