19
Iteration:  4895charge 0 multiplicity 1
 O         0.239105        -0.375311         0.290831
 C        -0.661676         0.584096         0.706540
 C        -0.496008         1.803228         1.672751
 C        -1.975207         2.137226         1.242870
 C        -2.146060         3.413803         0.475194
 C        -1.270562         2.864229        -0.687081
 C        -1.568774         1.393350        -0.164286
 O        -2.576681         1.173996         2.128035
 C        -1.865131        -0.036270         1.604682
 H         0.813672        -0.665461         0.959573
 H        -0.081292         1.705406         2.698187
 H         0.168703         2.573941         1.177736
 H        -3.241764         3.579302         0.241742
 H        -1.926672         4.404085         1.075637
 H        -1.650376         2.997093        -1.654486
 H        -0.258086         3.322813        -0.890672
 H        -2.493149         1.018244        -0.603090
 H        -1.557855        -0.703369         2.446356
 H        -2.586381        -0.659307         1.002960
