19
Iteration:  4486
 O         0.263880        -0.412051         0.279039
 C        -0.688533         0.526633         0.756610
 C        -0.444098         1.813784         1.649876
 C        -1.901407         2.046392         1.192993
 C        -2.177397         3.460743         0.562192
 C        -1.327406         2.966566        -0.727475
 C        -1.591130         1.411453        -0.171792
 O        -2.664721         1.175451         2.066066
 C        -1.830997        -0.052344         1.656735
 H         1.121937        -0.311925         0.878305
 H        -0.236799         1.717195         2.760317
 H         0.351723         2.445909         1.219607
 H        -3.237103         3.645710         0.317150
 H        -1.785484         4.324178         1.001912
 H        -1.628855         2.931278        -1.831264
 H        -0.340432         3.371753        -0.611173
 H        -2.302513         0.925915        -0.822301
 H        -1.478787        -0.362937         2.727308
 H        -2.540153        -0.715877         1.169033
