19
Iteration:  2793
 O         0.299933        -0.255017         0.303266
 C        -0.679653         0.554267         0.734923
 C        -0.435744         1.756919         1.773430
 C        -1.897882         2.074080         1.305104
 C        -2.128361         3.387547         0.600228
 C        -1.216103         2.913583        -0.610092
 C        -1.528141         1.449560        -0.142219
 O        -2.786886         1.102976         1.836534
 C        -1.928009        -0.066406         1.585030
 H         0.068862        -0.599351        -0.539520
 H        -0.374315         1.472145         2.797647
 H         0.374959         2.538225         1.555670
 H        -3.055228         3.665120         0.253665
 H        -1.949834         4.464654         1.130939
 H        -1.199919         3.365243        -1.564047
 H        -0.094029         3.169239        -0.369942
 H        -2.378873         1.091896        -0.711069
 H        -1.397401        -0.456123         2.627480
 H        -2.456373        -0.846646         0.987227
