19
Iteration:   286
 O         0.266790        -0.345800         0.271130
 C        -0.705526         0.536519         0.682263
 C        -0.333296         1.734107         1.653148
 C        -1.931908         2.043466         1.238324
 C        -2.221066         3.432842         0.538827
 C        -1.263677         2.969953        -0.548223
 C        -1.524018         1.441220        -0.201022
 O        -2.708215         1.192233         1.999931
 C        -1.904687        -0.058770         1.634564
 H         0.822156        -0.340340         1.125600
 H        -0.110156         1.442430         2.599784
 H         0.343263         2.438919         1.034399
 H        -3.256550         3.519086         0.215014
 H        -1.909598         4.343634         1.108150
 H        -1.567846         3.116417        -1.603244
 H        -0.267888         3.232235        -0.354296
 H        -2.244896         1.023383        -0.788360
 H        -1.667466        -0.488253         2.698301
 H        -2.488317        -0.753862         1.010569
