19
Iteration:  4318charge 0 multiplicity 1
 O         0.292001        -0.351930         0.289192
 C        -0.673931         0.490236         0.700043
 C        -0.407493         1.839043         1.592760
 C        -1.885450         2.061103         1.199650
 C        -2.215652         3.420807         0.609337
 C        -1.310233         2.836491        -0.680115
 C        -1.610080         1.425215        -0.123061
 O        -2.667856         1.226475         1.991970
 C        -1.879667        -0.037753         1.667688
 H         0.967847        -0.287220         0.943195
 H        -0.127727         1.722470         2.641382
 H         0.384465         2.511831         1.283720
 H        -3.175750         3.554295         0.362750
 H        -1.926783         4.266243         1.279244
 H        -1.568390         3.064630        -1.704397
 H        -0.288010         3.228038        -0.536720
 H        -2.362301         0.936258        -0.825359
 H        -1.507196        -0.351234         2.659883
 H        -2.612593        -0.792933         1.158200
