19
Iteration:  3069charge 0 multiplicity 1
 O         0.231694        -0.330874         0.302621
 C        -0.756556         0.514087         0.782807
 C        -0.447461         1.779505         1.726742
 C        -1.882258         2.043347         1.172416
 C        -2.137246         3.462116         0.539731
 C        -1.157124         2.994698        -0.596762
 C        -1.580736         1.466209        -0.140210
 O        -2.722061         1.032804         1.951339
 C        -1.872810        -0.068580         1.576983
 H         1.006956         0.035257         0.661469
 H        -0.202394         1.721946         2.775711
 H         0.288060         2.461678         1.312445
 H        -3.185925         3.664797         0.123936
 H        -1.876003         4.543796         0.973542
 H        -1.734697         3.266377        -1.558807
 H        -0.158348         3.250404        -0.582001
 H        -2.399671         1.040912        -0.680807
 H        -1.439865        -0.481924         2.525898
 H        -2.464190        -0.772631         1.005431
