19
Iteration:  4556charge 0 multiplicity 1
 O         0.267164        -0.407312         0.261056
 C        -0.658940         0.617387         0.740929
 C        -0.404495         1.830283         1.694791
 C        -1.895484         2.150132         1.186878
 C        -2.234133         3.511535         0.544371
 C        -1.303503         2.830995        -0.728210
 C        -1.512886         1.378441        -0.125499
 O        -2.606969         1.163952         2.084135
 C        -1.934048        -0.061436         1.601109
 H         0.488266        -0.942460         1.201437
 H        -0.278049         1.603792         2.748047
 H         0.308376         2.601522         1.311449
 H        -3.328743         3.528424         0.469919
 H        -1.872828         4.385071         1.120526
 H        -2.072967         2.916054        -1.538206
 H        -0.333826         3.462206        -1.049666
 H        -2.295344         0.857236        -0.751357
 H        -1.355461        -0.555955         2.397540
 H        -2.513026        -0.779630         0.954676
