19
Iteration:  1448
 O         0.290770        -0.343201         0.285394
 C        -0.731490         0.487719         0.718560
 C        -0.535713         1.791722         1.640266
 C        -1.925763         2.047744         1.157224
 C        -2.159073         3.466695         0.590634
 C        -1.227234         3.002377        -0.584178
 C        -1.524236         1.462728        -0.138701
 O        -2.621534         1.145493         1.984377
 C        -1.889209        -0.064906         1.628561
 H         0.773297        -0.966207         0.950558
 H        -0.375703         1.640286         2.734935
 H         0.222117         2.318942         0.962509
 H        -3.235537         3.589942         0.386800
 H        -1.775210         4.163353         1.345610
 H        -1.697424         3.386187        -1.550778
 H        -0.273287         3.388383        -0.663269
 H        -2.239350         1.010283        -0.779658
 H        -1.600032        -0.756045         2.440637
 H        -2.609348        -0.669766         1.066448
