19
Iteration:  1174charge 0 multiplicity 1
 O         0.265811        -0.367233         0.329566
 C        -0.718387         0.641772         0.725778
 C        -0.412729         1.825103         1.668005
 C        -1.932074         2.067010         1.232398
 C        -2.112848         3.454543         0.580121
 C        -1.303594         2.925196        -0.542199
 C        -1.604147         1.401363        -0.203344
 O        -2.651273         1.124242         1.979285
 C        -1.837588        -0.103018         1.503367
 H         0.597273        -0.657783         1.120780
 H        -0.489463         1.519223         2.751254
 H         0.342073         2.494453         1.393521
 H        -3.202889         3.758013         0.291131
 H        -1.585212         4.372066         1.065657
 H        -1.731632         3.204018        -1.646044
 H        -0.229176         3.197388        -0.493334
 H        -2.372489         1.055080        -0.833499
 H        -1.460057        -0.727795         2.369723
 H        -2.660917        -0.603681         0.829112
