19
Iteration:  2797charge 0 multiplicity 1
 O         0.313912        -0.277371         0.286648
 C        -0.677628         0.602234         0.778397
 C        -0.423726         1.763405         1.766584
 C        -1.928854         2.067569         1.293183
 C        -2.140072         3.431208         0.585197
 C        -1.186279         2.914039        -0.567116
 C        -1.526989         1.444005        -0.142782
 O        -2.780621         1.121104         1.833115
 C        -1.916141        -0.096085         1.591448
 H        -0.050103        -0.557324        -0.621998
 H        -0.432267         1.472915         2.818682
 H         0.381175         2.486696         1.549296
 H        -3.148715         3.707009         0.152882
 H        -1.813976         4.202324         1.230017
 H        -1.389528         3.292742        -1.630676
 H        -0.136637         3.133439        -0.509743
 H        -2.434393         0.949520        -0.703405
 H        -1.578722        -0.513118         2.521607
 H        -2.349580        -0.919869         0.982269
