19
Iteration:   423
 O         0.225051        -0.392459         0.197565
 C        -0.652254         0.607044         0.823161
 C        -0.367022         1.856110         1.827629
 C        -1.820006         2.109812         1.211666
 C        -2.226550         3.372937         0.615545
 C        -1.292576         2.936415        -0.657449
 C        -1.522031         1.401468        -0.176521
 O        -2.689542         1.128009         1.872696
 C        -1.914934        -0.001539         1.602754
 H         0.703412        -0.837282         0.815661
 H        -0.146890         1.654585         3.003254
 H         0.325504         2.443643         1.418444
 H        -3.298356         3.392724         0.350273
 H        -1.967015         4.294989         1.126720
 H        -1.910638         2.970196        -1.522969
 H        -0.199747         3.230248        -0.599163
 H        -2.519720         0.922938        -0.660858
 H        -1.454705        -0.401104         2.420058
 H        -2.571218        -0.556743         0.915917
