19
Iteration:  4188
 O         0.299988        -0.285718         0.310431
 C        -0.730552         0.560336         0.768669
 C        -0.455607         1.838068         1.634199
 C        -1.942475         2.026256         1.172413
 C        -2.138266         3.459599         0.560935
 C        -1.284650         2.919117        -0.614702
 C        -1.554930         1.389941        -0.180093
 O        -2.610627         1.100868         1.968628
 C        -1.869844        -0.007201         1.665211
 H         0.010245        -1.237592         0.592265
 H        -0.400327         1.729490         2.755675
 H         0.210446         2.591877         1.170387
 H        -3.270618         3.563830         0.434395
 H        -1.708182         4.342835         1.151101
 H        -1.716450         3.223205        -1.594140
 H        -0.190902         3.182777        -0.656372
 H        -2.353928         0.773300        -0.703223
 H        -1.482866        -0.481456         2.575180
 H        -2.422714        -0.692094         1.089428
