19
Iteration:  1795
 O         0.294835        -0.352641         0.391882
 C        -0.608714         0.560826         0.755186
 C        -0.455152         1.716953         1.765680
 C        -1.890790         2.052961         1.232663
 C        -2.126383         3.473180         0.712445
 C        -1.328232         2.970381        -0.658931
 C        -1.480169         1.483202        -0.199310
 O        -2.724135         1.147981         1.850136
 C        -1.899844        -0.049137         1.506417
 H        -0.038274        -0.921244        -0.439002
 H        -0.450422         1.282967         2.762418
 H         0.331304         2.567117         1.903647
 H        -3.224560         3.650635         0.365034
 H        -1.725157         4.258663         1.317493
 H        -1.868398         3.217846        -1.515587
 H        -0.227218         3.296668        -0.639376
 H        -2.295940         0.998332        -0.849257
 H        -1.760670        -0.569410         2.409985
 H        -2.411213        -0.736062         0.806113
