19
Iteration:   929
 O         0.201532        -0.359688         0.216982
 C        -0.642670         0.559591         0.755727
 C        -0.413966         1.810113         1.682092
 C        -1.887529         2.060828         1.240896
 C        -2.194911         3.383924         0.629897
 C        -1.281189         2.929850        -0.584236
 C        -1.523095         1.447170        -0.142326
 O        -2.687728         1.129753         1.924185
 C        -1.869748        -0.011733         1.575373
 H         0.862316        -0.776165         0.896695
 H        -0.244812         1.688359         2.800095
 H         0.178657         2.575844         1.323610
 H        -3.280322         3.591641         0.354862
 H        -1.734509         4.280602         1.017430
 H        -1.598907         3.152773        -1.596661
 H        -0.390686         3.524571        -0.502174
 H        -2.222772         0.897292        -0.620694
 H        -1.563610        -0.461578         2.572957
 H        -2.488867        -0.685589         0.960527
