19
Iteration:  2619charge 0 multiplicity 1
 O         0.280097        -0.394465         0.383659
 C        -0.654146         0.549325         0.785145
 C        -0.425906         1.697805         1.779915
 C        -1.844798         2.053472         1.235279
 C        -2.209143         3.472975         0.560638
 C        -1.273556         3.013282        -0.613888
 C        -1.501115         1.513815        -0.170918
 O        -2.725787         1.142142         1.891942
 C        -1.932199        -0.096858         1.513387
 H         0.765406        -0.023829        -0.447912
 H        -0.335890         1.389409         2.869669
 H         0.355321         2.350078         1.507753
 H        -3.203494         3.508000         0.264917
 H        -1.822923         4.361272         1.143558
 H        -1.812049         3.048788        -1.533803
 H        -0.310832         3.596783        -0.450219
 H        -2.212226         0.925443        -0.862253
 H        -1.634433        -0.542111         2.393654
 H        -2.584645        -0.757542         0.996074
