19
Iteration:   102
 O         0.297832        -0.393987         0.342219
 C        -0.660052         0.590322         0.792703
 C        -0.321435         1.733806         1.672379
 C        -1.894575         2.055401         1.201982
 C        -2.154300         3.437684         0.696540
 C        -1.395922         2.923754        -0.666276
 C        -1.543647         1.421898        -0.178467
 O        -2.708416         1.223671         1.857458
 C        -1.931655        -0.013608         1.574846
 H         0.925477        -0.512220         0.999940
 H        -0.182750         1.514308         2.704765
 H         0.496594         2.518958         1.273119
 H        -3.211090         3.525897         0.458065
 H        -1.743548         4.318728         1.243583
 H        -2.056108         3.095973        -1.600057
 H        -0.356669         3.262970        -0.792657
 H        -2.347399         0.733355        -0.681153
 H        -1.617328        -0.516470         2.476984
 H        -2.536599        -0.736815         0.954568
