19
Iteration:  3409
 O         0.305973        -0.331357         0.395063
 C        -0.701274         0.599512         0.781958
 C        -0.405194         1.819350         1.696285
 C        -1.923052         2.021469         1.184690
 C        -2.123058         3.476155         0.633004
 C        -1.302500         2.966326        -0.638526
 C        -1.518934         1.466567        -0.191854
 O        -2.689321         1.079016         1.917719
 C        -1.913830        -0.065300         1.524210
 H        -0.090087        -1.147009         0.551224
 H        -0.382175         1.430093         2.715457
 H         0.254613         2.514595         1.287640
 H        -3.109095         3.648252         0.390763
 H        -1.780873         4.259799         1.327402
 H        -1.634910         3.092432        -1.676918
 H        -0.227491         3.369721        -0.620577
 H        -2.273588         1.007854        -0.766751
 H        -1.561716        -0.590120         2.494571
 H        -2.420184        -0.685454         0.777565
