19
Iteration:   523
 O         0.287541        -0.316834         0.229506
 C        -0.709718         0.470512         0.827873
 C        -0.414190         1.720872         1.730980
 C        -1.784409         2.082463         1.243595
 C        -2.220272         3.455591         0.581318
 C        -1.336940         2.945913        -0.695688
 C        -1.494149         1.498616        -0.116055
 O        -2.704927         1.142864         1.854249
 C        -1.882531        -0.017792         1.648729
 H         0.781089        -0.798905         0.903280
 H        -0.329211         1.485928         2.797376
 H         0.377009         2.452911         1.405812
 H        -3.314267         3.435711         0.483638
 H        -1.894104         4.384475         1.137357
 H        -1.810114         2.987009        -1.761086
 H        -0.389741         3.442562        -0.614096
 H        -2.548819         1.153348        -0.600907
 H        -1.663799        -0.585257         2.553686
 H        -2.437038        -0.777532         1.058293
