19
Iteration:  1386
 O         0.298838        -0.346935         0.252559
 C        -0.665615         0.487993         0.780917
 C        -0.359827         1.774852         1.695417
 C        -1.828443         2.113772         1.222982
 C        -2.215243         3.479327         0.632184
 C        -1.321504         3.018184        -0.631069
 C        -1.494666         1.429489        -0.202581
 O        -2.709506         1.132822         1.908934
 C        -1.996211        -0.117322         1.644973
 H         0.564018        -0.982727         1.006965
 H        -0.150753         1.802125         2.704608
 H         0.456281         2.346077         1.114450
 H        -3.257386         3.569135         0.380307
 H        -1.941013         4.468542         1.173356
 H        -1.735770         3.247877        -1.592864
 H        -0.243907         3.392645        -0.498033
 H        -2.284618         0.918696        -0.789372
 H        -1.565907        -0.602051         2.510756
 H        -2.708266        -0.701762         1.047835
