19
Iteration:  2537
 O         0.290398        -0.376779         0.371329
 C        -0.715272         0.535821         0.715643
 C        -0.485406         1.777648         1.720932
 C        -1.883483         2.063000         1.188935
 C        -2.152368         3.411205         0.649467
 C        -1.226545         2.931706        -0.521005
 C        -1.535266         1.468278        -0.147297
 O        -2.697049         1.136081         1.890412
 C        -1.928427        -0.022465         1.493955
 H         0.927947         0.222578         0.037675
 H        -0.375265         1.491688         2.719007
 H         0.409596         2.394162         1.341543
 H        -3.118321         3.629930         0.101155
 H        -2.031992         4.145740         1.366295
 H        -1.562037         3.231671        -1.522741
 H        -0.267051         3.241513        -0.648110
 H        -2.285898         1.027949        -0.702928
 H        -1.540271        -0.631217         2.413873
 H        -2.548474        -0.622016         0.863747
