19
Iteration:   772
 O         0.307347        -0.286378         0.331406
 C        -0.704972         0.546614         0.711190
 C        -0.381721         1.777752         1.524536
 C        -1.903567         2.059689         1.205953
 C        -2.184021         3.422055         0.613059
 C        -1.227345         2.990801        -0.571556
 C        -1.587490         1.454635        -0.114928
 O        -2.721351         1.128623         2.005188
 C        -1.916256        -0.139004         1.576618
 H         0.656738        -0.772921         1.003552
 H        -0.207893         1.746373         2.591959
 H         0.300847         2.619936         1.066171
 H        -3.205361         3.585710         0.366360
 H        -1.730895         4.252772         1.253718
 H        -1.686540         3.082691        -1.666283
 H        -0.159140         3.331416        -0.624279
 H        -2.298293         1.042849        -0.853009
 H        -1.641287        -0.683520         2.600977
 H        -2.558202        -0.762488         0.898208
