19
Iteration:  3626
 O         0.366016        -0.257414         0.381371
 C        -0.715849         0.529048         0.743618
 C        -0.428935         1.742181         1.593021
 C        -1.858296         2.100786         1.220436
 C        -2.163219         3.451455         0.596283
 C        -1.333714         2.889760        -0.599893
 C        -1.543516         1.476735        -0.176407
 O        -2.752827         1.150671         1.957368
 C        -1.888551        -0.070836         1.625836
 H        -0.041379        -1.053974         0.058351
 H        -0.085670         1.462942         2.609988
 H         0.420326         2.292891         1.174052
 H        -3.165626         3.413176         0.302461
 H        -1.652260         4.356619         1.036724
 H        -1.588889         3.350328        -1.514076
 H        -0.284937         3.228288        -0.577139
 H        -2.269638         0.909695        -0.740119
 H        -1.492634        -0.576442         2.487776
 H        -2.482703        -0.828955         1.073891
