19
Iteration:  4278
 O         0.272983        -0.505051         0.412189
 C        -0.697037         0.641023         0.750466
 C        -0.431399         1.834420         1.650955
 C        -1.922088         2.087279         1.227707
 C        -2.183449         3.429356         0.581903
 C        -1.345585         2.954862        -0.762257
 C        -1.542171         1.507227        -0.176052
 O        -2.650029         1.117564         2.017732
 C        -1.850264        -0.086087         1.635910
 H         0.995153        -0.172616        -0.251468
 H        -0.267481         1.633352         2.789368
 H         0.355206         2.543376         1.266454
 H        -3.360802         3.691264         0.371398
 H        -1.754356         4.326017         1.025264
 H        -1.811343         2.929442        -1.754697
 H        -0.236789         3.343542        -0.849492
 H        -2.360536         1.011146        -0.719899
 H        -1.439530        -0.483749         2.597146
 H        -2.442318        -0.777389         1.113703
