19
Iteration:  4985
 O         0.260933        -0.347477         0.291936
 C        -0.708640         0.625720         0.824806
 C        -0.482921         1.874145         1.586371
 C        -1.941338         2.095774         1.209307
 C        -2.060645         3.471361         0.553859
 C        -1.302106         2.813658        -0.652511
 C        -1.575402         1.345246        -0.193069
 O        -2.654052         1.151529         2.042880
 C        -1.811083        -0.050215         1.621240
 H         0.440225        -0.934482         1.004363
 H        -0.381737         1.950609         2.677410
 H         0.327705         2.356876         1.065675
 H        -3.119977         3.638823         0.272195
 H        -1.774983         4.308570         1.168640
 H        -1.779103         3.067380        -1.653182
 H        -0.389605         3.376814        -0.734518
 H        -2.512408         0.948627        -0.688423
 H        -1.440887        -0.635082         2.403980
 H        -2.507666        -0.781557         1.088310
