19
Iteration:  4459
 O         0.184223        -0.321189         0.290259
 C        -0.651346         0.594244         0.789845
 C        -0.458131         1.826637         1.648922
 C        -1.863375         2.078890         1.209407
 C        -2.117630         3.453997         0.523356
 C        -1.339395         2.836295        -0.642729
 C        -1.601434         1.357112        -0.086211
 O        -2.613179         1.166079         2.010142
 C        -1.843593        -0.073328         1.578836
 H         1.125795        -0.315020         0.762865
 H        -0.177748         1.666078         2.663017
 H         0.270511         2.562118         1.284533
 H        -3.179093         3.528391         0.176825
 H        -1.861276         4.544300         1.069068
 H        -1.805832         2.859893        -1.610484
 H        -0.321784         3.259980        -0.861195
 H        -2.492324         0.878197        -0.591094
 H        -1.687625        -0.470229         2.523542
 H        -2.526363        -0.651806         0.882577
