19
Iteration:  1057charge 0 multiplicity 1
 O         0.320766        -0.341321         0.330144
 C        -0.738472         0.559837         0.682210
 C        -0.375435         1.855663         1.587060
 C        -1.910667         2.082296         1.235915
 C        -2.173166         3.446887         0.608096
 C        -1.256143         2.936620        -0.495480
 C        -1.553696         1.454595        -0.223119
 O        -2.660465         1.119090         1.981279
 C        -1.956575        -0.092030         1.564039
 H         0.383087        -1.000758         0.962738
 H         0.003572         1.734661         2.616679
 H         0.278802         2.479871         1.088183
 H        -3.165435         3.426894         0.292636
 H        -1.914722         4.352624         1.102851
 H        -1.758621         3.221072        -1.530456
 H        -0.298055         3.255323        -0.489774
 H        -2.404143         0.837291        -0.745696
 H        -1.505947        -0.554161         2.415748
 H        -2.627570        -0.851457         1.158978
