19
Iteration:  1839charge 0 multiplicity 1
 O         0.322108        -0.365667         0.457076
 C        -0.736895         0.546367         0.738806
 C        -0.399683         1.747222         1.648343
 C        -1.841662         2.059140         1.143723
 C        -2.203342         3.450108         0.688323
 C        -1.200935         3.027651        -0.564139
 C        -1.541072         1.478638        -0.192565
 O        -2.725775         1.127092         1.890915
 C        -1.941385        -0.099485         1.530935
 H         0.259705        -0.490864        -0.584260
 H        -0.327077         1.689804         2.682353
 H         0.495055         2.406854         1.311066
 H        -3.325402         3.575876         0.411698
 H        -1.946129         4.243281         1.353160
 H        -1.554932         3.265090        -1.501410
 H        -0.130310         3.318188        -0.369936
 H        -2.476770         1.012815        -0.633861
 H        -1.623672        -0.691756         2.354591
 H        -2.545971        -0.760636         0.854471
