19
Iteration:  1439charge 0 multiplicity 1
 O         0.264924        -0.341654         0.273985
 C        -0.691979         0.560610         0.754143
 C        -0.485779         1.766883         1.677706
 C        -1.924686         2.044748         1.186831
 C        -2.157945         3.414456         0.604973
 C        -1.268951         3.004707        -0.646003
 C        -1.511420         1.469537        -0.229162
 O        -2.616706         1.118392         2.015151
 C        -1.919910        -0.083513         1.603441
 H         0.487289        -0.993707         1.058848
 H        -0.524957         1.698058         2.732880
 H         0.384672         2.561834         1.559216
 H        -3.121414         3.852642         0.350865
 H        -1.578183         4.288454         1.199404
 H        -1.781137         3.075208        -1.607551
 H        -0.298941         3.472627        -0.587242
 H        -2.288383         1.084395        -0.835144
 H        -1.571306        -0.639136         2.450890
 H        -2.566396        -0.690954         0.984422
