19
Iteration:  2030
 O         0.248341        -0.433556         0.392086
 C        -0.680527         0.591137         0.770499
 C        -0.440742         1.770671         1.743788
 C        -1.902309         2.094210         1.247387
 C        -2.158480         3.471026         0.624387
 C        -1.245049         2.972382        -0.597164
 C        -1.485198         1.467012        -0.158370
 O        -2.769840         1.089511         1.891860
 C        -1.868137        -0.058444         1.463614
 H         0.649404        -0.103117        -0.388630
 H        -0.151149         1.611227         2.815937
 H         0.390133         2.347225         1.325076
 H        -3.201741         3.416211         0.312041
 H        -1.897207         4.429838         1.226399
 H        -1.814448         3.176954        -1.517692
 H        -0.192343         3.340798        -0.580694
 H        -2.318142         1.061402        -0.722494
 H        -1.401012        -0.526221         2.412697
 H        -2.375901        -0.683504         0.811732
