19
Iteration:  4304charge 0 multiplicity 1
 O         0.235028        -0.407201         0.340040
 C        -0.748378         0.630246         0.801108
 C        -0.407597         1.820501         1.588277
 C        -1.895875         2.120966         1.195099
 C        -2.186233         3.481171         0.543427
 C        -1.307973         2.880585        -0.604444
 C        -1.600983         1.421858        -0.181997
 O        -2.604453         1.084128         1.960453
 C        -1.831922        -0.050936         1.674633
 H         1.143361        -0.196730         0.713468
 H        -0.306389         1.675249         2.616243
 H         0.302127         2.459425         1.076254
 H        -3.299030         3.645237         0.261274
 H        -1.725376         4.449046         0.925596
 H        -1.768198         3.048396        -1.628365
 H        -0.310769         3.112939        -0.627839
 H        -2.503654         0.998651        -0.557393
 H        -1.435557        -0.562601         2.537622
 H        -2.457260        -0.848749         1.044747
