19
Iteration:  4000
 O         0.344165        -0.437315         0.491864
 C        -0.671803         0.540346         0.666287
 C        -0.419106         1.696056         1.631324
 C        -1.854446         2.065509         1.187645
 C        -2.275283         3.454651         0.613648
 C        -1.338340         2.992334        -0.597500
 C        -1.542473         1.543929        -0.228518
 O        -2.643886         1.172699         1.967794
 C        -1.904188        -0.056270         1.639107
 H         0.279121        -0.712536        -0.424273
 H        -0.208927         1.502396         2.747911
 H         0.375513         2.303037         1.118904
 H        -3.301003         3.455425         0.253087
 H        -1.983446         4.484583         1.124772
 H        -1.652421         3.154625        -1.716387
 H        -0.394842         3.519442        -0.677920
 H        -2.399183         1.173708        -0.903060
 H        -1.368152        -0.499421         2.439138
 H        -2.495940        -0.719983         1.113552
