19
Iteration:   190
 O         0.311926        -0.319680         0.284397
 C        -0.742979         0.482929         0.783043
 C        -0.431401         1.669791         1.651094
 C        -1.856147         2.093941         1.136658
 C        -2.231638         3.471818         0.622219
 C        -1.308706         3.012272        -0.656029
 C        -1.482459         1.390524        -0.201139
 O        -2.664543         1.178248         1.992796
 C        -1.888201        -0.011038         1.681682
 H         0.656345        -0.805339         0.965976
 H        -0.485261         1.449523         2.672033
 H         0.260393         2.425751         1.138414
 H        -3.259958         3.543834         0.279004
 H        -1.920536         4.418536         1.099475
 H        -1.663321         3.183631        -1.694607
 H        -0.264067         3.294481        -0.371091
 H        -2.331516         0.869057        -0.821201
 H        -1.513792        -0.621753         2.444006
 H        -2.551837        -0.546561         1.002483
