19
Iteration:  1465charge 0 multiplicity 1
 O         0.298943        -0.345508         0.272488
 C        -0.717278         0.544907         0.754199
 C        -0.329819         1.757512         1.543444
 C        -1.895445         2.079426         1.224972
 C        -2.203848         3.483063         0.659264
 C        -1.240341         2.947623        -0.529480
 C        -1.578131         1.434793        -0.205337
 O        -2.725963         1.147720         1.941612
 C        -1.943173        -0.079985         1.610230
 H         0.908542        -0.645666         1.098598
 H        -0.185050         1.747034         2.663529
 H         0.389261         2.362481         1.169144
 H        -3.197262         3.545361         0.146355
 H        -2.002349         4.489173         1.151419
 H        -1.538475         3.210587        -1.549945
 H        -0.116961         3.246934        -0.347014
 H        -2.463627         1.024208        -0.835838
 H        -1.618784        -0.593666         2.594405
 H        -2.466972        -0.961191         1.151505
