19
Iteration:  2451
 O         0.387085        -0.334530         0.465666
 C        -0.680796         0.510860         0.754099
 C        -0.423738         1.732348         1.541936
 C        -1.903198         2.070773         1.164601
 C        -2.182641         3.504594         0.752556
 C        -1.248489         3.059008        -0.543347
 C        -1.475770         1.488228        -0.207911
 O        -2.740708         1.097745         1.898038
 C        -2.016490        -0.094877         1.486743
 H         0.081589        -1.347541         0.525502
 H        -0.172258         1.588828         2.551951
 H         0.500892         2.289004         1.096089
 H        -3.233186         3.677919         0.328259
 H        -1.907468         4.268763         1.442057
 H        -1.815137         3.265734        -1.595188
 H        -0.198936         3.412622        -0.426663
 H        -2.182047         1.122675        -0.982606
 H        -1.772506        -0.722901         2.428600
 H        -2.482569        -0.745241         0.793702
