19
Iteration:  1156charge 0 multiplicity 1
 O         0.281222        -0.369158         0.331276
 C        -0.653600         0.555881         0.741824
 C        -0.530126         1.779665         1.634917
 C        -1.968338         2.048744         1.116717
 C        -2.108510         3.466251         0.692176
 C        -1.240956         2.964703        -0.680392
 C        -1.583582         1.492969        -0.248800
 O        -2.632987         1.093331         2.070571
 C        -1.918869        -0.033321         1.569465
 H         0.715852        -0.673138         1.064611
 H        -0.287668         1.620426         2.661629
 H         0.200653         2.538153         1.328046
 H        -3.051916         3.744426         0.407328
 H        -1.859955         4.169729         1.433477
 H        -1.762166         3.201099        -1.631673
 H        -0.223163         3.144594        -0.588664
 H        -2.264381         0.862268        -0.871991
 H        -1.395204        -0.534371         2.378582
 H        -2.414997        -0.690766         0.837815
