19
Iteration:  1988
 O         0.274981        -0.423193         0.371595
 C        -0.684795         0.549501         0.713357
 C        -0.429070         1.709213         1.711090
 C        -1.823769         2.101202         1.228302
 C        -2.212557         3.415962         0.680600
 C        -1.318612         2.962390        -0.570964
 C        -1.495496         1.480924        -0.211001
 O        -2.739659         1.184661         1.879778
 C        -1.897151        -0.037163         1.497605
 H         1.209812         0.027652         0.372443
 H        -0.507954         1.472845         2.812899
 H         0.463217         2.410871         1.479578
 H        -3.247040         3.292627         0.286195
 H        -1.873675         4.378508         1.269611
 H        -1.720641         3.167490        -1.556678
 H        -0.251573         3.446820        -0.541391
 H        -2.216079         0.946708        -0.804363
 H        -1.482407        -0.517528         2.391323
 H        -2.622698        -0.729030         1.039815
