19
Iteration:  4083
 O         0.257185        -0.380943         0.315027
 C        -0.735862         0.545997         0.724770
 C        -0.415427         1.775749         1.650235
 C        -1.846801         2.061508         1.201831
 C        -2.261913         3.422748         0.631439
 C        -1.253162         2.922223        -0.704572
 C        -1.593161         1.461507        -0.131964
 O        -2.630488         1.171508         1.935282
 C        -1.876494         0.005839         1.634208
 H         1.177672        -0.151245         0.767697
 H        -0.290420         1.593015         2.742420
 H         0.418285         2.311601         1.295963
 H        -3.286612         3.471793         0.277625
 H        -2.097195         4.258913         1.229694
 H        -1.663961         2.969257        -1.641788
 H        -0.190071         3.276547        -0.527101
 H        -2.410103         0.938410        -0.605142
 H        -1.459947        -0.494165         2.583403
 H        -2.450836        -0.900369         1.156427
