19
Iteration:  3231charge 0 multiplicity 1
 O         0.258824        -0.308276         0.322789
 C        -0.692254         0.591224         0.788744
 C        -0.462367         1.776440         1.676485
 C        -1.875646         2.032284         1.204763
 C        -2.098879         3.483427         0.578951
 C        -1.277595         2.962529        -0.628329
 C        -1.580410         1.403311        -0.164136
 O        -2.693280         1.110597         1.938822
 C        -1.902383        -0.094614         1.548283
 H         0.737141        -0.386314         1.087608
 H        -0.073629         1.619310         2.675931
 H         0.300165         2.494828         1.273339
 H        -3.104335         3.641530         0.350181
 H        -1.803692         4.286645         1.255982
 H        -1.730731         2.993127        -1.751199
 H        -0.279554         3.272944        -0.449328
 H        -2.318033         0.885111        -0.715435
 H        -1.524207        -0.608101         2.514692
 H        -2.597204        -0.623751         0.872208
