19
Iteration:  4262
 O         0.306830        -0.434370         0.437554
 C        -0.644940         0.481099         0.758031
 C        -0.401350         1.812701         1.672544
 C        -1.850518         2.099925         1.172744
 C        -2.224451         3.444674         0.594555
 C        -1.423973         2.917762        -0.600257
 C        -1.512264         1.375564        -0.204877
 O        -2.635669         1.220736         1.924311
 C        -1.875281         0.039719         1.619844
 H         0.368066        -0.295479        -0.602465
 H        -0.355846         1.614677         2.696448
 H         0.286322         2.525740         1.246731
 H        -3.182549         3.468044         0.334426
 H        -1.870719         4.307737         1.185206
 H        -1.978758         3.128618        -1.536589
 H        -0.463735         3.345574        -0.658537
 H        -2.342306         0.824629        -0.727050
 H        -1.534490        -0.535335         2.467761
 H        -2.481304        -0.756298         1.023436
