19
Iteration:  1124
 O         0.274890        -0.342112         0.248127
 C        -0.684167         0.545923         0.819943
 C        -0.331108         1.722908         1.715047
 C        -1.857064         2.061138         1.203449
 C        -2.188360         3.430787         0.627309
 C        -1.354650         2.960940        -0.618201
 C        -1.571083         1.460241        -0.092332
 O        -2.717823         1.179328         1.832389
 C        -1.909147        -0.040433         1.589847
 H         0.913768        -0.709365         0.994974
 H         0.025994         1.532443         2.727846
 H         0.360049         2.312471         1.062244
 H        -3.199776         3.543567         0.285979
 H        -1.885015         4.219209         1.266835
 H        -1.678943         3.186048        -1.626896
 H        -0.280005         3.247607        -0.548220
 H        -2.458621         1.079353        -0.689028
 H        -1.543553        -0.420031         2.537200
 H        -2.441406        -0.813808         1.114162
