19
Iteration:  2392
 O         0.297663        -0.360638         0.308606
 C        -0.676796         0.540808         0.788235
 C        -0.469523         1.820522         1.777839
 C        -1.890578         2.085157         1.258101
 C        -2.123095         3.476248         0.568226
 C        -1.242995         3.003463        -0.543060
 C        -1.478450         1.515532        -0.121941
 O        -2.713098         1.054041         1.869405
 C        -1.953480        -0.109434         1.491720
 H        -0.132897        -1.027409        -0.125464
 H        -0.348801         1.544786         2.909831
 H         0.227986         2.450104         1.343095
 H        -3.136589         3.468169         0.201270
 H        -1.817481         4.369938         1.241196
 H        -1.654568         3.207382        -1.635444
 H        -0.195834         3.452130        -0.645146
 H        -2.251564         1.077058        -0.727758
 H        -1.558256        -0.556256         2.435586
 H        -2.478839        -0.799080         0.889464
