19
Iteration:    23
 O         0.272957        -0.353738         0.161463
 C        -0.677264         0.500555         0.875286
 C        -0.322145         1.851578         1.719052
 C        -1.794842         2.115755         1.309725
 C        -2.200603         3.396239         0.560078
 C        -1.278532         2.936922        -0.675603
 C        -1.461185         1.465855        -0.034619
 O        -2.790352         1.160115         1.845160
 C        -1.988113        -0.075959         1.642362
 H         0.626228        -1.009790         0.832716
 H        -0.000455         1.904592         2.747828
 H         0.315120         2.499524         1.092474
 H        -3.210920         3.248166         0.176047
 H        -2.143529         4.407692         0.967867
 H        -1.784606         2.998200        -1.637796
 H        -0.281001         3.355301        -0.817091
 H        -2.293612         0.952223        -0.513736
 H        -1.827452        -0.463589         2.634582
 H        -2.465571        -0.814430         1.013191
