19
Iteration:  4264charge 0 multiplicity 1
 O         0.310484        -0.449560         0.431338
 C        -0.651469         0.496873         0.762507
 C        -0.413811         1.811780         1.661741
 C        -1.848016         2.096122         1.180417
 C        -2.224219         3.446580         0.579752
 C        -1.417830         2.899964        -0.609484
 C        -1.507772         1.398991        -0.206923
 O        -2.635153         1.206181         1.931067
 C        -1.875877         0.038681         1.623040
 H         0.397966        -0.260632        -0.515883
 H        -0.350158         1.589007         2.748270
 H         0.268628         2.580353         1.276901
 H        -3.258050         3.517303         0.372544
 H        -1.848564         4.281493         1.190498
 H        -1.982971         3.170462        -1.493282
 H        -0.405326         3.397921        -0.705074
 H        -2.385122         0.863851        -0.729113
 H        -1.491761        -0.557097         2.461463
 H        -2.492062        -0.691697         1.071064
