19
Iteration:  2431charge 0 multiplicity 1
 O         0.367553        -0.364370         0.453778
 C        -0.710129         0.511954         0.711865
 C        -0.450916         1.730141         1.760621
 C        -1.807759         2.035773         1.211390
 C        -2.135464         3.440826         0.708504
 C        -1.344523         3.075725        -0.591888
 C        -1.511738         1.520621        -0.233628
 O        -2.679120         1.141543         1.811106
 C        -1.964326        -0.078671         1.447591
 H         0.101211        -1.313050         0.629079
 H        -0.315309         1.658706         2.801847
 H         0.323351         2.476031         1.298492
 H        -3.218123         3.513831         0.440985
 H        -1.684014         4.304722         1.218241
 H        -1.983216         3.221982        -1.407477
 H        -0.318276         3.428513        -0.478444
 H        -2.405834         1.030536        -0.782498
 H        -1.740173        -0.542214         2.402982
 H        -2.683486        -0.778867         0.823266
