19
Iteration:   903
 O         0.260047        -0.370565         0.242854
 C        -0.649291         0.593943         0.798048
 C        -0.371037         1.808576         1.775848
 C        -1.909708         2.103281         1.231568
 C        -2.144164         3.492929         0.655805
 C        -1.344671         2.911553        -0.660217
 C        -1.571691         1.459782        -0.127771
 O        -2.673619         1.094573         1.887351
 C        -1.871870        -0.087131         1.534973
 H         0.594447        -0.965488         0.989269
 H        -0.170841         1.654868         2.808233
 H         0.445023         2.497885         1.322040
 H        -3.117900         3.616455         0.262353
 H        -1.913670         4.480121         1.103204
 H        -1.976250         3.189841        -1.577612
 H        -0.411025         3.338844        -0.882870
 H        -2.359380         0.723856        -0.605469
 H        -1.654667        -0.539456         2.438885
 H        -2.484291        -0.707717         0.916915
