19
Iteration:  1950
 O         0.246595        -0.442318         0.440064
 C        -0.754007         0.504255         0.752067
 C        -0.472324         1.849443         1.617747
 C        -1.879084         2.128414         1.179723
 C        -2.152025         3.575981         0.646535
 C        -1.250841         2.996451        -0.560699
 C        -1.487308         1.496396        -0.185939
 O        -2.664345         1.006472         1.952139
 C        -1.920736        -0.154887         1.501567
 H         0.917496         0.071975         0.068856
 H        -0.594612         1.904847         2.699320
 H         0.338421         2.396373         1.187177
 H        -3.186066         3.784499         0.414975
 H        -1.881776         4.433561         1.195166
 H        -1.656747         3.227519        -1.582980
 H        -0.244695         3.304777        -0.600723
 H        -2.160612         1.045122        -0.973625
 H        -1.456783        -0.746512         2.362086
 H        -2.414664        -0.943471         0.911388
