19
Iteration:  4890
 O         0.244164        -0.339048         0.276725
 C        -0.697251         0.553758         0.704998
 C        -0.473573         1.858731         1.658386
 C        -1.953374         2.087778         1.200706
 C        -2.158056         3.449869         0.498228
 C        -1.256579         2.858193        -0.684582
 C        -1.565422         1.438189        -0.150368
 O        -2.615508         1.167526         2.125747
 C        -1.855490        -0.044085         1.623421
 H         0.890585        -0.667302         1.081254
 H        -0.104156         1.478073         2.638689
 H         0.333550         2.418924         1.224815
 H        -3.193928         3.619429         0.235832
 H        -1.841425         4.272713         1.129703
 H        -1.788372         2.847581        -1.725521
 H        -0.232893         3.085052        -0.905745
 H        -2.451259         0.946469        -0.625114
 H        -1.621651        -0.689268         2.507301
 H        -2.549730        -0.721467         1.151560
