19
Iteration:  4345charge 0 multiplicity 1
 O         0.314163        -0.287073         0.251061
 C        -0.666469         0.519015         0.751578
 C        -0.408828         1.784340         1.642364
 C        -1.857215         2.074967         1.235142
 C        -2.185095         3.407298         0.529049
 C        -1.374443         2.880960        -0.672416
 C        -1.533341         1.414489        -0.206627
 O        -2.634245         1.196468         2.027949
 C        -1.963779        -0.020337         1.732251
 H         0.616524        -0.910168         0.890027
 H        -0.165585         1.528276         2.719825
 H         0.541187         2.266247         1.366377
 H        -3.332088         3.500409         0.216736
 H        -1.979351         4.340742         1.012223
 H        -1.841759         2.955416        -1.699091
 H        -0.404725         3.422973        -0.706285
 H        -2.199516         0.944676        -0.889006
 H        -1.716351        -0.417342         2.712098
 H        -2.540657        -0.636965         1.136463
