19
Iteration:  3964charge 0 multiplicity 1
 O         0.280936        -0.346746         0.321287
 C        -0.662438         0.607810         0.745921
 C        -0.363631         1.791864         1.682512
 C        -1.855918         2.066506         1.215550
 C        -2.261804         3.396164         0.604621
 C        -1.282740         2.937840        -0.608541
 C        -1.449276         1.494326        -0.183751
 O        -2.697445         1.129365         1.926426
 C        -1.923819        -0.054385         1.624440
 H        -0.169361        -1.161597         0.181546
 H        -0.066125         1.803873         2.754255
 H         0.287515         2.424072         1.114520
 H        -3.374179         3.401937         0.391002
 H        -1.999131         4.385751         1.120000
 H        -1.601894         2.931596        -1.610883
 H        -0.278903         3.318510        -0.336948
 H        -2.292961         1.002209        -0.796924
 H        -1.683548        -0.523896         2.548377
 H        -2.571730        -0.713472         1.064096
