19
Iteration:  4699
 O         0.304486        -0.322081         0.288691
 C        -0.769054         0.498709         0.784373
 C        -0.429310         1.757984         1.598249
 C        -1.880250         2.122378         1.137554
 C        -2.146790         3.458101         0.535260
 C        -1.368110         2.866150        -0.629503
 C        -1.549683         1.379111        -0.153508
 O        -2.602998         1.241579         2.024124
 C        -1.866750        -0.067432         1.619382
 H         0.873094        -0.387094         1.178772
 H        -0.465175         1.619465         2.694273
 H         0.249217         2.425502         1.129300
 H        -3.175806         3.502820         0.356364
 H        -1.889811         4.192095         1.179483
 H        -1.857788         3.171547        -1.534598
 H        -0.295793         3.347741        -0.435443
 H        -2.465647         0.843927        -0.603963
 H        -1.463860        -0.559960         2.512931
 H        -2.625571        -0.777205         1.170023
