19
Iteration:  4300
 O         0.207101        -0.411942         0.357131
 C        -0.741921         0.602237         0.826843
 C        -0.410537         1.808201         1.593997
 C        -1.876852         2.103274         1.188335
 C        -2.156242         3.510691         0.496441
 C        -1.336910         2.900737        -0.620578
 C        -1.603019         1.409146        -0.165901
 O        -2.626363         1.065304         1.981406
 C        -1.796056        -0.064779         1.634052
 H         1.059865        -0.085177         0.632911
 H        -0.185871         1.761598         2.744178
 H         0.293097         2.565727         1.163734
 H        -3.327550         3.696995         0.224054
 H        -1.842231         4.437273         0.973026
 H        -1.815967         3.266979        -1.550088
 H        -0.198962         3.192746        -0.682150
 H        -2.495397         0.959905        -0.619781
 H        -1.330975        -0.542504         2.532000
 H        -2.409945        -0.682921         1.089505
