19
Iteration:  1101charge 0 multiplicity 1
 O         0.219612        -0.402916         0.208856
 C        -0.674941         0.599085         0.689567
 C        -0.407289         1.800102         1.768388
 C        -1.799314         2.112602         1.310863
 C        -2.216917         3.433554         0.568522
 C        -1.315003         2.920274        -0.614748
 C        -1.466475         1.444518        -0.154856
 O        -2.705200         1.145353         1.949197
 C        -1.897143        -0.042006         1.591081
 H         0.682013        -0.612342         1.005252
 H        -0.433817         1.428340         2.792288
 H         0.372226         2.533883         1.622724
 H        -3.213020         3.369928         0.243787
 H        -2.001118         4.366415         1.022968
 H        -1.776914         3.123848        -1.666203
 H        -0.340333         3.339684        -0.630131
 H        -2.244248         1.023406        -0.909778
 H        -1.520680        -0.600858         2.425394
 H        -2.446561        -0.799200         1.015717
