19
Iteration:  3930charge 0 multiplicity 1
 O         0.357965        -0.309253         0.339855
 C        -0.730584         0.545233         0.757690
 C        -0.474140         1.777344         1.716422
 C        -1.901984         2.106512         1.138994
 C        -2.130871         3.532993         0.595073
 C        -1.313504         2.919170        -0.683687
 C        -1.595221         1.521089        -0.222161
 O        -2.641067         1.045712         1.990492
 C        -1.870210        -0.101960         1.603740
 H         0.001009        -1.239793         0.626217
 H        -0.481543         1.690694         2.779485
 H         0.250522         2.521576         1.369542
 H        -3.285120         3.669221         0.575642
 H        -1.602913         4.295875         1.200209
 H        -1.414747         3.164903        -1.683332
 H        -0.207425         3.182335        -0.598469
 H        -2.485234         0.969476        -0.634337
 H        -1.567185        -0.573671         2.520981
 H        -2.490838        -0.796951         1.042924
