19
Iteration:  1528
 O         0.220385        -0.455086         0.406150
 C        -0.657343         0.553439         0.784448
 C        -0.424508         1.764234         1.698100
 C        -1.906745         2.037358         1.247225
 C        -2.155120         3.478863         0.623684
 C        -1.324384         3.000665        -0.651386
 C        -1.532264         1.462730        -0.188783
 O        -2.662150         1.107400         1.959961
 C        -1.889748        -0.065782         1.476605
 H         0.918504        -0.033366        -0.242256
 H        -0.217974         1.806803         2.782009
 H         0.251668         2.511138         1.136324
 H        -3.162049         3.844287         0.489394
 H        -1.672860         4.365429         1.220159
 H        -1.784811         3.284837        -1.541682
 H        -0.301225         3.440802        -0.583159
 H        -2.289290         0.948969        -0.761564
 H        -1.536512        -0.475389         2.337178
 H        -2.476634        -0.653469         0.795943
