19
Iteration:   396
 O         0.256143        -0.354685         0.249313
 C        -0.685537         0.512134         0.826488
 C        -0.451365         1.757420         1.705387
 C        -1.944077         2.111453         1.237437
 C        -2.201354         3.466435         0.497054
 C        -1.299227         3.031082        -0.611338
 C        -1.496067         1.407406        -0.152691
 O        -2.673640         1.156032         2.016586
 C        -1.821091        -0.121428         1.554431
 H         0.578425        -0.976475         0.820063
 H        -0.234513         1.528435         2.680041
 H         0.390718         2.543631         1.348710
 H        -3.224915         3.708075         0.184750
 H        -1.834984         4.380425         1.015468
 H        -1.869027         3.015750        -1.580250
 H        -0.279551         3.345066        -0.675043
 H        -2.140759         0.967340        -0.794180
 H        -1.381102        -0.529419         2.559456
 H        -2.558151        -0.510008         0.867154
