19
Iteration:  4817charge 0 multiplicity 1
 O         0.198082        -0.433681         0.318658
 C        -0.729373         0.537067         0.794280
 C        -0.392128         1.862966         1.624851
 C        -1.885114         2.136350         1.203999
 C        -2.231928         3.386722         0.546513
 C        -1.373825         2.926031        -0.715736
 C        -1.515476         1.466980        -0.162453
 O        -2.563138         1.184620         2.032468
 C        -1.824986        -0.073954         1.609465
 H         0.764359        -0.829662         1.151174
 H        -0.444132         1.743648         2.744134
 H         0.256974         2.628264         1.235321
 H        -3.299042         3.513924         0.173055
 H        -1.688483         4.302825         1.071980
 H        -1.746951         3.120670        -1.645083
 H        -0.378165         3.366100        -0.529242
 H        -2.351680         1.030373        -0.672549
 H        -1.465295        -0.771075         2.425086
 H        -2.389068        -0.757496         0.976560
