19
Iteration:   161charge 0 multiplicity 1
 O         0.252555        -0.387741         0.299769
 C        -0.747662         0.583379         0.724913
 C        -0.403340         1.896394         1.578076
 C        -1.866077         2.077253         1.225460
 C        -2.158469         3.385521         0.580587
 C        -1.250866         2.915045        -0.555899
 C        -1.578026         1.414782        -0.133639
 O        -2.680666         1.113328         1.984372
 C        -1.918877        -0.035025         1.569053
 H         0.846702        -0.459248         1.087727
 H        -0.207954         1.817425         2.768577
 H         0.293327         2.519752         1.162228
 H        -3.190262         3.496441         0.172290
 H        -1.870147         4.354918         0.985152
 H        -1.419694         3.189446        -1.566967
 H        -0.140853         3.218580        -0.361794
 H        -2.442910         0.973931        -0.691746
 H        -1.370536        -0.552432         2.450653
 H        -2.589916        -0.751469         0.943373
