19
Iteration:  4173charge 0 multiplicity 1
 O         0.334585        -0.300964         0.289543
 C        -0.661587         0.559513         0.776084
 C        -0.407781         1.830513         1.613579
 C        -1.879482         2.112917         1.254667
 C        -2.151466         3.435675         0.610685
 C        -1.315400         2.896701        -0.653195
 C        -1.527608         1.433895        -0.156805
 O        -2.790060         1.172522         1.975090
 C        -1.862154        -0.098213         1.647745
 H         0.282123        -1.293354         0.577332
 H        -0.172086         1.647308         2.684551
 H         0.239355         2.410728         0.904812
 H        -3.040031         3.546018         0.088883
 H        -1.811006         4.346913         1.164102
 H        -1.909290         2.948872        -1.603268
 H        -0.358593         3.330873        -0.744056
 H        -2.236252         0.952687        -0.931125
 H        -1.531367        -0.588282         2.591683
 H        -2.524940        -1.020876         1.284458
