19
Iteration:  4750
 O         0.235511        -0.337806         0.249146
 C        -0.648770         0.534593         0.807677
 C        -0.425227         1.835587         1.645964
 C        -1.855537         2.085634         1.270338
 C        -2.144119         3.498697         0.525472
 C        -1.354753         2.854711        -0.653083
 C        -1.589232         1.383525        -0.202905
 O        -2.638483         1.149288         1.908884
 C        -1.819644        -0.035030         1.728388
 H         0.605259        -0.857874         0.862373
 H        -0.577147         1.735447         2.746483
 H         0.431884         2.455993         1.340120
 H        -3.282148         3.501241         0.258233
 H        -1.883511         4.512542         1.125197
 H        -1.978742         3.148899        -1.466811
 H        -0.382765         3.154883        -0.844949
 H        -2.403178         0.981916        -0.709849
 H        -1.582893        -0.486284         2.744737
 H        -2.463266        -0.753953         1.307338
