19
Iteration:  4983charge 0 multiplicity 1
 O         0.252622        -0.353988         0.303009
 C        -0.704846         0.614290         0.827951
 C        -0.489847         1.863219         1.587010
 C        -1.956729         2.098382         1.206095
 C        -2.058656         3.465808         0.547326
 C        -1.320169         2.822781        -0.661829
 C        -1.575179         1.353352        -0.185345
 O        -2.640957         1.150291         2.029103
 C        -1.799778        -0.028250         1.615219
 H         0.454881        -0.954898         0.950126
 H        -0.380036         1.932618         2.681791
 H         0.360397         2.348606         1.064993
 H        -3.173397         3.618607         0.302877
 H        -1.749948         4.357186         1.247854
 H        -1.780115         3.029494        -1.624488
 H        -0.337588         3.361060        -0.682153
 H        -2.446558         1.020644        -0.733715
 H        -1.420362        -0.677827         2.457439
 H        -2.466747        -0.781467         1.144411
