19
Iteration:  3613charge 0 multiplicity 1
 O         0.328441        -0.331341         0.338782
 C        -0.736891         0.550606         0.754581
 C        -0.392049         1.800521         1.677767
 C        -1.895783         2.111570         1.230404
 C        -2.184031         3.485000         0.575768
 C        -1.282788         2.970259        -0.642621
 C        -1.528012         1.425820        -0.169577
 O        -2.675485         1.108249         1.980502
 C        -1.875568        -0.085336         1.570589
 H         0.156016        -1.322897         0.368043
 H        -0.458534         1.743740         2.775320
 H         0.409493         2.373635         1.280795
 H        -3.252196         3.645175         0.367381
 H        -1.982211         4.369928         1.088417
 H        -1.731466         2.866206        -1.612203
 H        -0.308738         3.325704        -0.595632
 H        -2.408552         1.080688        -0.809005
 H        -1.559179        -0.536019         2.484715
 H        -2.579656        -0.804804         0.944204
