19
Iteration:  3631
 O         0.373952        -0.247065         0.395089
 C        -0.694024         0.561711         0.755423
 C        -0.406297         1.681165         1.601532
 C        -1.869204         2.079311         1.209287
 C        -2.153021         3.433135         0.612081
 C        -1.318015         2.914074        -0.607715
 C        -1.588142         1.433208        -0.166684
 O        -2.729366         1.160860         1.928695
 C        -1.911619        -0.048617         1.630498
 H        -0.033617        -1.022266        -0.093053
 H        -0.023881         1.493140         2.605481
 H         0.240388         2.503017         1.127752
 H        -3.221782         3.524208         0.171333
 H        -1.697913         4.310958         1.118008
 H        -1.633924         3.421653        -1.581599
 H        -0.240521         3.229977        -0.555910
 H        -2.397846         0.922868        -0.736859
 H        -1.432619        -0.578369         2.516617
 H        -2.601851        -0.800379         1.201828
