19
Iteration:  1590
 O         0.289175        -0.337211         0.266596
 C        -0.623935         0.553906         0.722865
 C        -0.427624         1.745311         1.746035
 C        -1.889703         2.108585         1.253889
 C        -2.188948         3.441675         0.637725
 C        -1.234718         3.016666        -0.597297
 C        -1.489858         1.453382        -0.177810
 O        -2.702168         1.112601         1.934259
 C        -1.931290        -0.063969         1.553686
 H        -0.102910        -1.298626         0.289809
 H        -0.511879         1.485246         2.760164
 H         0.281141         2.598445         1.441380
 H        -3.170372         3.444129         0.246517
 H        -1.900143         4.302476         1.186341
 H        -1.828548         3.165277        -1.484808
 H        -0.295690         3.507457        -0.816936
 H        -2.242641         0.995644        -0.777723
 H        -1.610269        -0.542057         2.574257
 H        -2.586270        -0.858161         1.058636
