19
Iteration:  3708charge 0 multiplicity 1
 O         0.221161        -0.458563         0.363746
 C        -0.708602         0.529268         0.734285
 C        -0.411125         1.821441         1.698100
 C        -1.822028         2.082273         1.242450
 C        -2.239714         3.429862         0.563550
 C        -1.337993         2.958852        -0.613120
 C        -1.565507         1.454299        -0.143829
 O        -2.607896         1.178684         1.923842
 C        -1.846477        -0.035905         1.546871
 H         1.206068        -0.213631         0.536043
 H        -0.082111         1.517493         2.693309
 H         0.315663         2.377710         1.141637
 H        -3.397219         3.382095         0.337942
 H        -2.224241         4.424681         0.973155
 H        -1.718219         3.178800        -1.650501
 H        -0.339664         3.253164        -0.405767
 H        -2.428607         1.060526        -0.704077
 H        -1.601623        -0.439894         2.525412
 H        -2.382209        -0.679518         0.973873
