19
Iteration:  4598charge 0 multiplicity 1
 O         0.324201        -0.276208         0.307604
 C        -0.713267         0.502810         0.726015
 C        -0.389054         1.782992         1.529558
 C        -1.852552         2.113319         1.207035
 C        -2.227653         3.486216         0.622449
 C        -1.297978         2.856512        -0.673859
 C        -1.570581         1.420765        -0.132976
 O        -2.700628         1.169139         1.987947
 C        -1.882640        -0.065935         1.710460
 H         0.430923        -1.026676         0.835935
 H        -0.125821         1.625143         2.572852
 H         0.405070         2.460570         1.136092
 H        -3.193464         3.625919         0.136419
 H        -1.945695         4.318402         1.076277
 H        -1.604858         2.956649        -1.743273
 H        -0.229257         3.070028        -0.748528
 H        -2.450227         0.931637        -0.522930
 H        -1.482880        -0.398083         2.725108
 H        -2.592415        -0.736312         1.298838
