19
Iteration:  2043charge 0 multiplicity 1
 O         0.224333        -0.407146         0.458357
 C        -0.687875         0.635272         0.681240
 C        -0.427459         1.830452         1.696932
 C        -1.916555         2.045638         1.242143
 C        -2.170903         3.424356         0.639562
 C        -1.245277         2.915425        -0.516937
 C        -1.565126         1.519191        -0.199293
 O        -2.627071         1.065654         1.870920
 C        -1.913587        -0.057683         1.486741
 H         0.667008        -0.381965        -0.488219
 H        -0.379157         1.484093         2.726451
 H         0.062930         2.862620         1.470625
 H        -3.127010         3.831573         0.177705
 H        -1.775774         4.336886         1.299626
 H        -1.415685         3.226557        -1.504981
 H        -0.074640         3.081200        -0.456640
 H        -2.250827         0.945708        -0.770908
 H        -1.634561        -0.671783         2.356111
 H        -2.526015        -0.740099         0.924708
