19
Iteration:  1343charge 0 multiplicity 1
 O         0.241444        -0.408203         0.282293
 C        -0.771234         0.571021         0.767799
 C        -0.443457         1.826220         1.660859
 C        -1.898368         2.092409         1.237044
 C        -2.182642         3.512343         0.585545
 C        -1.208830         2.962690        -0.589459
 C        -1.587195         1.460617        -0.194139
 O        -2.633904         1.047949         1.956532
 C        -1.869701        -0.079036         1.578157
 H         0.932036        -0.569878         0.887084
 H        -0.294379         1.777085         2.669685
 H         0.297843         2.586427         1.279286
 H        -3.161961         3.578693         0.242858
 H        -1.978137         4.457386         1.030344
 H        -1.461299         3.267819        -1.555857
 H        -0.126498         3.143488        -0.282388
 H        -2.421666         0.897841        -0.682909
 H        -1.606981        -0.498803         2.570391
 H        -2.382979        -0.767999         0.828046
