19
Iteration:   426
 O         0.221554        -0.369448         0.215352
 C        -0.666391         0.572716         0.817966
 C        -0.342117         1.838573         1.814710
 C        -1.841055         2.112505         1.238992
 C        -2.227533         3.372214         0.599204
 C        -1.291752         2.956788        -0.626040
 C        -1.534375         1.384300        -0.172689
 O        -2.704152         1.153123         1.853972
 C        -1.884998         0.011293         1.577086
 H         0.810191        -0.920681         0.873812
 H        -0.121160         1.628011         2.871847
 H         0.428385         2.545774         1.323355
 H        -3.268558         3.353853         0.336186
 H        -1.964677         4.305509         1.172256
 H        -1.939796         3.013601        -1.592016
 H        -0.234701         3.134642        -0.613227
 H        -2.512252         0.933642        -0.636483
 H        -1.518777        -0.543310         2.503210
 H        -2.515835        -0.697300         1.014156
