19
Iteration:  3339charge 0 multiplicity 1
 O         0.260035        -0.374821         0.430875
 C        -0.642428         0.558111         0.758133
 C        -0.475156         1.769675         1.665704
 C        -1.925411         2.141790         1.211769
 C        -2.207196         3.418442         0.609715
 C        -1.213421         2.941452        -0.563133
 C        -1.499132         1.418336        -0.217742
 O        -2.646248         1.142022         1.937027
 C        -1.905392        -0.067521         1.545986
 H         0.268758        -0.372998        -0.479688
 H        -0.419149         1.427470         2.684625
 H         0.179236         2.635070         1.278824
 H        -3.227946         3.594932         0.066988
 H        -1.885394         4.292112         1.259555
 H        -1.618997         3.294185        -1.567249
 H        -0.233195         3.327556        -0.526280
 H        -2.347119         0.892084        -0.732929
 H        -1.494729        -0.598472         2.451211
 H        -2.636320        -0.665154         0.924128
