19
Iteration:  4874charge 0 multiplicity 1
 O         0.275309        -0.278171         0.251503
 C        -0.735176         0.561839         0.802154
 C        -0.370692         1.759558         1.609877
 C        -1.902020         2.128847         1.200851
 C        -2.106849         3.458445         0.568179
 C        -1.334591         2.821825        -0.680041
 C        -1.622166         1.346283        -0.164931
 O        -2.656933         1.151965         1.989843
 C        -1.896878        -0.052887         1.723513
 H         0.815191        -0.593281         0.975030
 H        -0.376560         1.943729         2.700545
 H         0.347881         2.523189         1.231545
 H        -3.140594         3.748275         0.286372
 H        -1.710879         4.418758         1.004282
 H        -1.693039         3.159201        -1.655350
 H        -0.266054         3.249425        -0.672967
 H        -2.400981         0.841974        -0.826208
 H        -1.374867        -0.461064         2.590077
 H        -2.493378        -0.832053         1.148805
