19
Iteration:  3397
 O         0.324046        -0.280482         0.398658
 C        -0.662093         0.544458         0.728165
 C        -0.502848         1.713647         1.651187
 C        -1.848047         2.142494         1.208840
 C        -2.159861         3.457800         0.661892
 C        -1.273357         2.947144        -0.654795
 C        -1.510127         1.423792        -0.165854
 O        -2.747643         1.114252         1.894663
 C        -1.874563        -0.056405         1.542076
 H         0.093176        -1.336121         0.458143
 H        -0.369356         1.619022         2.736763
 H         0.293528         2.418563         1.572373
 H        -3.135110         3.716658         0.409193
 H        -1.604351         4.291274         1.206867
 H        -1.909945         3.273829        -1.555785
 H        -0.258557         3.373117        -0.669823
 H        -2.320484         0.970724        -0.634551
 H        -1.506853        -0.724277         2.460809
 H        -2.547242        -0.745049         1.022834
