19
Iteration:  1270
 O         0.321463        -0.355391         0.354024
 C        -0.763551         0.564240         0.755831
 C        -0.446046         1.794355         1.625401
 C        -1.892175         2.107866         1.236167
 C        -2.151235         3.533540         0.607734
 C        -1.272981         2.963467        -0.664160
 C        -1.544703         1.490823        -0.184428
 O        -2.684879         1.016367         1.981101
 C        -1.920678        -0.100347         1.557734
 H         0.788732        -0.916338         1.029374
 H         0.044246         1.622943         2.672603
 H         0.256516         2.351541         1.038291
 H        -3.233369         3.781262         0.345907
 H        -1.800168         4.369312         1.223239
 H        -1.714115         3.156773        -1.591249
 H        -0.218973         3.344223        -0.526798
 H        -2.277268         0.991715        -0.851614
 H        -1.556487        -0.619512         2.470791
 H        -2.597387        -0.638356         0.976351
