19
Iteration:   152
 O         0.204209        -0.369263         0.303733
 C        -0.693538         0.528482         0.799001
 C        -0.413730         1.821465         1.627097
 C        -1.895184         2.107950         1.213826
 C        -2.189630         3.492531         0.558967
 C        -1.256995         2.885802        -0.612189
 C        -1.573439         1.444232        -0.160951
 O        -2.660272         1.114950         1.947797
 C        -1.844578        -0.051686         1.587917
 H         0.955806        -0.510914         0.949303
 H        -0.149059         1.777180         2.776379
 H         0.275573         2.535459         1.232759
 H        -3.272563         3.491646         0.326103
 H        -1.911967         4.339932         1.200101
 H        -1.532370         3.205475        -1.607460
 H        -0.209487         3.174793        -0.464665
 H        -2.388046         0.982154        -0.615383
 H        -1.616748        -0.746304         2.469134
 H        -2.469662        -0.658969         0.901574
