19
Iteration:  1830
 O         0.325821        -0.348389         0.427843
 C        -0.707991         0.482923         0.813481
 C        -0.378467         1.708296         1.638990
 C        -1.833461         2.105138         1.247833
 C        -2.187380         3.468020         0.660052
 C        -1.282981         3.044615        -0.568483
 C        -1.483140         1.491800        -0.179969
 O        -2.709587         1.115745         1.805723
 C        -1.989279        -0.134643         1.560754
 H         0.278671        -0.523412        -0.618890
 H        -0.255620         1.570246         2.645830
 H         0.245056         2.560947         1.181759
 H        -3.280439         3.623123         0.401435
 H        -1.931212         4.416153         1.195498
 H        -1.619985         3.417121        -1.512709
 H        -0.207005         3.298581        -0.542940
 H        -2.392071         1.042152        -0.658738
 H        -1.843320        -0.659548         2.512128
 H        -2.512567        -0.752622         0.955074
