19
Iteration:    28
 O         0.242787        -0.334175         0.179005
 C        -0.642427         0.490561         0.847164
 C        -0.307776         1.818747         1.724129
 C        -1.847649         2.154743         1.320037
 C        -2.215146         3.417086         0.556378
 C        -1.303891         2.922560        -0.689830
 C        -1.430426         1.434469        -0.032079
 O        -2.763843         1.176550         1.844032
 C        -1.969432        -0.063475         1.634811
 H         0.589550        -0.984222         0.786836
 H        -0.140858         1.689056         2.840896
 H         0.279562         2.512124         1.053537
 H        -3.288425         3.284561         0.301063
 H        -2.066515         4.449437         0.938788
 H        -1.773358         2.994147        -1.718397
 H        -0.238214         3.248646        -0.501912
 H        -2.192493         0.785146        -0.661445
 H        -1.748856        -0.428141         2.684175
 H        -2.498806        -0.850609         0.937055
