19
Iteration:  1868
 O         0.274771        -0.398388         0.426550
 C        -0.701381         0.611677         0.677517
 C        -0.509772         1.764666         1.652718
 C        -1.914088         2.077127         1.227015
 C        -2.200297         3.538580         0.600928
 C        -1.175440         3.021294        -0.538154
 C        -1.463775         1.447581        -0.287112
 O        -2.690258         1.059044         2.037409
 C        -1.914443        -0.131664         1.551535
 H         0.202239        -0.461086        -0.529909
 H        -0.450230         1.485365         2.801099
 H         0.107338         2.630559         1.500102
 H        -3.161239         3.507004         0.137483
 H        -1.680835         4.303880         1.222854
 H        -1.500026         3.324227        -1.588629
 H        -0.106872         3.337050        -0.378864
 H        -2.222553         0.932144        -0.870621
 H        -1.424802        -0.725997         2.348635
 H        -2.581386        -0.590353         0.693529
