19
Iteration:  4615
 O         0.327487        -0.400765         0.270795
 C        -0.740754         0.573924         0.775419
 C        -0.457856         1.778052         1.619483
 C        -1.931537         2.081288         1.199992
 C        -2.165957         3.397073         0.536722
 C        -1.289482         2.921571        -0.666006
 C        -1.596047         1.437810        -0.195167
 O        -2.666372         1.167634         2.011601
 C        -1.815901         0.018762         1.717221
 H         0.419558        -0.985609         0.947060
 H        -0.154560         1.702486         2.679847
 H         0.221939         2.465994         1.119052
 H        -3.271494         3.493083         0.383388
 H        -1.778040         4.410044         1.118616
 H        -1.795792         3.193537        -1.603389
 H        -0.300450         3.442013        -0.629133
 H        -2.290792         0.959972        -0.936409
 H        -1.269195        -0.322746         2.587408
 H        -2.405365        -0.862705         1.321313
