19
Iteration:  2739charge 0 multiplicity 1
 O         0.350482        -0.421228         0.500780
 C        -0.636676         0.600941         0.738057
 C        -0.484871         1.796400         1.638069
 C        -1.853560         2.062471         1.235986
 C        -2.189126         3.401956         0.672144
 C        -1.308792         3.033186        -0.551297
 C        -1.473828         1.492065        -0.264694
 O        -2.670387         1.104764         1.926251
 C        -1.986039        -0.066447         1.418247
 H        -0.263760        -1.062708         0.124067
 H        -0.300549         1.695925         2.689375
 H         0.282639         2.505068         1.176189
 H        -3.183950         3.640915         0.443593
 H        -1.718349         4.219684         1.349522
 H        -1.804377         3.253171        -1.469584
 H        -0.206946         3.409293        -0.457654
 H        -2.311758         1.178428        -0.975278
 H        -1.645310        -0.735798         2.384910
 H        -2.543389        -0.620837         0.632095
