19
Iteration:  4311charge 0 multiplicity 1
 O         0.272950        -0.381783         0.322114
 C        -0.713984         0.576516         0.723774
 C        -0.414717         1.854185         1.580972
 C        -1.912342         2.117661         1.206785
 C        -2.201554         3.443838         0.612423
 C        -1.313355         2.844267        -0.630007
 C        -1.605250         1.445251        -0.168030
 O        -2.610744         1.149711         1.957753
 C        -1.886369        -0.053743         1.683755
 H         1.050997        -0.304074         0.779491
 H        -0.282437         1.601468         2.707761
 H         0.419502         2.409848         1.079246
 H        -3.328911         3.570730         0.250106
 H        -1.737006         4.312870         1.029857
 H        -1.591759         2.832453        -1.693827
 H        -0.195593         3.173025        -0.555145
 H        -2.475033         0.977956        -0.649067
 H        -1.533471        -0.524721         2.639532
 H        -2.371565        -0.802612         1.177695
