19
Iteration:   510charge 0 multiplicity 1
 O         0.275306        -0.357728         0.248342
 C        -0.614302         0.582173         0.816702
 C        -0.348421         1.776845         1.705837
 C        -1.878279         2.103285         1.265562
 C        -2.120855         3.457488         0.566921
 C        -1.350714         2.970943        -0.637884
 C        -1.546826         1.483233        -0.081384
 O        -2.779313         1.138317         1.877353
 C        -1.901285        -0.139362         1.586589
 H         0.826250        -0.793869         0.936594
 H        -0.047689         1.681331         2.828821
 H         0.316449         2.383734         1.227339
 H        -3.211100         3.343357         0.284821
 H        -1.959629         4.454560         0.998138
 H        -1.914832         3.091172        -1.565569
 H        -0.347053         3.280035        -0.934573
 H        -2.357346         0.885297        -0.605798
 H        -1.601690        -0.593215         2.633854
 H        -2.528882        -0.765434         0.875059
