19
Iteration:  4984
 O         0.257198        -0.351973         0.298340
 C        -0.706640         0.621361         0.827323
 C        -0.487000         1.868467         1.586139
 C        -1.949535         2.097145         1.208230
 C        -2.058270         3.468578         0.550257
 C        -1.311116         2.817484        -0.656869
 C        -1.575083         1.348407        -0.189476
 O        -2.647615         1.151003         2.036001
 C        -1.804561        -0.038866         1.618069
 H         0.441908        -0.929342         0.959855
 H        -0.382914         1.944542         2.679802
 H         0.345369         2.348274         1.064779
 H        -3.150583         3.627801         0.287399
 H        -1.763873         4.335755         1.212682
 H        -1.779333         3.049582        -1.641278
 H        -0.367249         3.373706        -0.707526
 H        -2.482916         0.987927        -0.711496
 H        -1.432166        -0.658274         2.425178
 H        -2.489540        -0.785747         1.117999
