19
Iteration:  1320charge 0 multiplicity 1
 O         0.262508        -0.339669         0.246988
 C        -0.713613         0.573984         0.766232
 C        -0.358549         1.722751         1.749059
 C        -1.885659         2.056182         1.251785
 C        -2.181172         3.461571         0.604689
 C        -1.292383         2.945514        -0.694538
 C        -1.459667         1.496754        -0.088979
 O        -2.770519         1.159630         1.909564
 C        -1.899503        -0.132617         1.573148
 H         1.038986        -0.549806         0.824130
 H        -0.254963         1.680912         2.753215
 H         0.441812         2.438461         1.330527
 H        -3.168462         3.739594         0.343511
 H        -1.764509         4.339748         1.127361
 H        -1.899615         2.906432        -1.601256
 H        -0.313510         3.430271        -0.796624
 H        -2.272552         0.939310        -0.588893
 H        -1.574079        -0.544861         2.537523
 H        -2.639192        -0.721756         0.985630
