19
Iteration:  4730
 O         0.221410        -0.357159         0.256871
 C        -0.718206         0.615998         0.795534
 C        -0.388127         1.840894         1.641042
 C        -1.961348         2.093976         1.196309
 C        -2.111235         3.475068         0.543416
 C        -1.333694         2.828268        -0.733850
 C        -1.548822         1.425885        -0.103603
 O        -2.714613         1.088764         1.995664
 C        -1.800720        -0.029238         1.644196
 H         0.743537        -0.730800         0.990143
 H         0.004463         1.803705         2.699440
 H         0.121375         2.672742         1.177240
 H        -3.127901         3.906647         0.315105
 H        -1.572132         4.166991         1.300624
 H        -1.709078         3.057147        -1.682406
 H        -0.257338         3.220549        -0.655970
 H        -2.344473         0.762294        -0.453445
 H        -1.318930        -0.424236         2.586748
 H        -2.327389        -0.884108         1.239318
