19
Iteration:   643charge 0 multiplicity 1
 O         0.253067        -0.304514         0.297615
 C        -0.729159         0.535050         0.815905
 C        -0.409423         1.787676         1.655366
 C        -1.912189         2.043650         1.157024
 C        -2.150984         3.498842         0.630005
 C        -1.294585         2.922518        -0.643172
 C        -1.540587         1.450153        -0.098736
 O        -2.663346         1.095004         1.937331
 C        -1.886496        -0.040070         1.542127
 H         0.843069        -0.835565         0.964778
 H        -0.145996         1.819804         2.655457
 H         0.300829         2.469983         1.072187
 H        -3.169282         3.637563         0.327651
 H        -1.762506         4.334578         1.288015
 H        -1.689098         3.093386        -1.709201
 H        -0.348054         3.316159        -0.490608
 H        -2.206444         0.893887        -0.756339
 H        -1.713032        -0.662676         2.462603
 H        -2.483538        -0.818970         1.082071
