19
Iteration:   883charge 0 multiplicity 1
 O         0.339978        -0.293728         0.300565
 C        -0.739969         0.528336         0.738493
 C        -0.467000         1.718809         1.620905
 C        -1.868146         2.072285         1.199141
 C        -2.155646         3.453531         0.587645
 C        -1.366083         3.012133        -0.653766
 C        -1.457143         1.519733        -0.191408
 O        -2.712215         1.121537         2.030583
 C        -1.884035        -0.130177         1.593022
 H         0.414339        -1.006971         1.091432
 H        -0.315890         1.438696         2.657031
 H         0.372094         2.346457         1.259116
 H        -3.204668         3.658891         0.605110
 H        -1.600205         4.239889         1.139387
 H        -1.637622         3.089084        -1.789041
 H        -0.467450         3.424279        -0.655590
 H        -2.270840         1.019264        -0.574640
 H        -1.481656        -0.582846         2.510664
 H        -2.612057        -0.694880         1.086159
