19
Iteration:  2702charge 0 multiplicity 1
 O         0.381547        -0.354957         0.447188
 C        -0.666848         0.469958         0.777973
 C        -0.410607         1.695728         1.693051
 C        -1.851033         2.105326         1.224679
 C        -2.171291         3.497495         0.644972
 C        -1.365838         3.059956        -0.605507
 C        -1.497423         1.561775        -0.194353
 O        -2.733957         1.080312         1.802780
 C        -1.921719        -0.120886         1.534318
 H        -0.052606        -1.176163         0.013880
 H        -0.319453         1.415077         2.804074
 H         0.433368         2.247297         1.364104
 H        -3.240051         3.869783         0.362552
 H        -1.686122         4.417639         1.104817
 H        -1.706112         3.430841        -1.645872
 H        -0.435119         3.583927        -0.608764
 H        -2.381850         1.124995        -0.583816
 H        -1.706898        -0.643005         2.606033
 H        -2.658489        -0.840710         1.043201
