19
Iteration:  2698charge 0 multiplicity 1
 O         0.389686        -0.359498         0.419114
 C        -0.693078         0.461719         0.765362
 C        -0.441127         1.718468         1.702997
 C        -1.866648         2.072390         1.230188
 C        -2.142428         3.486963         0.633173
 C        -1.353961         3.061479        -0.600693
 C        -1.483837         1.579402        -0.181063
 O        -2.723977         1.106356         1.795769
 C        -1.939447        -0.151774         1.585134
 H         0.130158        -1.190078        -0.090223
 H        -0.377435         1.476529         2.706708
 H         0.442408         2.405925         1.392584
 H        -3.189858         3.801614         0.407403
 H        -1.814067         4.367417         1.069998
 H        -1.695003         3.403235        -1.536996
 H        -0.386207         3.582268        -0.619619
 H        -2.387693         1.026095        -0.547611
 H        -1.678232        -0.528456         2.453785
 H        -2.658823        -0.771156         1.066561
