19
Iteration:  2192charge 0 multiplicity 1
 O         0.248474        -0.405359         0.375918
 C        -0.617995         0.542090         0.789420
 C        -0.423895         1.712717         1.718924
 C        -1.880447         2.081991         1.284526
 C        -2.113803         3.473963         0.599122
 C        -1.318459         3.036152        -0.650543
 C        -1.473333         1.506304        -0.129815
 O        -2.757424         1.098331         1.823789
 C        -1.902967        -0.114901         1.583140
 H         0.609444        -0.106430        -0.569799
 H        -0.250899         1.504203         2.787171
 H         0.284947         2.605993         1.617130
 H        -3.128078         3.674697         0.338126
 H        -1.953080         4.372827         1.267500
 H        -1.899968         3.241884        -1.602214
 H        -0.217051         3.366980        -0.594301
 H        -2.228831         1.042253        -0.838921
 H        -1.795429        -0.647432         2.512640
 H        -2.522986        -0.741475         0.915030
