19
Iteration:     5
 O         0.252723        -0.359547         0.290085
 C        -0.676809         0.549682         0.778350
 C        -0.403068         1.796649         1.694657
 C        -1.890950         2.109292         1.195256
 C        -2.158515         3.412219         0.557897
 C        -1.263955         2.927401        -0.612493
 C        -1.522279         1.468650        -0.152190
 O        -2.680394         1.139861         1.921930
 C        -1.926284        -0.042206         1.628929
 H         0.716314        -0.878820         0.991734
 H        -0.285857         1.652385         2.745091
 H         0.344547         2.455492         1.109973
 H        -3.226618         3.439571         0.304266
 H        -1.898731         4.295719         1.170929
 H        -1.857525         3.056853        -1.587173
 H        -0.255780         3.327046        -0.624753
 H        -2.480574         1.074825        -0.699774
 H        -1.505599        -0.599375         2.510295
 H        -2.620060        -0.698424         0.960087
