19
Iteration:  3538
 O         0.288911        -0.401001         0.339076
 C        -0.700536         0.481194         0.721357
 C        -0.431834         1.772164         1.710925
 C        -1.859566         2.060420         1.155128
 C        -2.189624         3.471957         0.589772
 C        -1.268058         3.007485        -0.637437
 C        -1.577429         1.429819        -0.178171
 O        -2.729087         1.130753         1.952476
 C        -1.898618        -0.060135         1.593822
 H         1.179924         0.074990         0.616369
 H        -0.118435         1.580144         2.758704
 H         0.275820         2.464811         1.377688
 H        -3.261282         3.591329         0.386630
 H        -1.706307         4.410695         1.128782
 H        -1.636002         3.545539        -1.505567
 H        -0.224327         3.290798        -0.480363
 H        -2.418351         1.004715        -0.736660
 H        -1.502917        -0.513245         2.513804
 H        -2.460901        -0.821461         1.167540
