19
Iteration:  2084charge 0 multiplicity 1
 O         0.308347        -0.397549         0.389182
 C        -0.666975         0.519370         0.695753
 C        -0.411696         1.726229         1.670423
 C        -1.898724         2.062470         1.247815
 C        -2.167270         3.483822         0.622064
 C        -1.269165         3.023379        -0.580869
 C        -1.452278         1.502971        -0.160974
 O        -2.734362         1.122700         1.861327
 C        -2.018035        -0.111404         1.618548
 H         0.969956         0.013710        -0.217119
 H        -0.268086         1.349616         2.712816
 H         0.337610         2.448534         1.306182
 H        -3.203197         3.443448         0.424531
 H        -1.803389         4.386100         1.207611
 H        -1.715655         3.210386        -1.593359
 H        -0.347880         3.674024        -0.702068
 H        -2.174530         1.180103        -0.925938
 H        -1.710689        -0.683626         2.660670
 H        -2.676477        -0.844450         1.129941
