19
Iteration:  2405charge 0 multiplicity 1
 O         0.300086        -0.377045         0.354993
 C        -0.661349         0.594881         0.742657
 C        -0.393121         1.694560         1.839649
 C        -1.908681         2.078307         1.253117
 C        -2.183405         3.568848         0.624210
 C        -1.278447         2.985854        -0.632759
 C        -1.459423         1.526326        -0.170666
 O        -2.746694         1.064777         1.856117
 C        -1.884601        -0.084242         1.470274
 H        -0.211298        -1.293281         0.218594
 H        -0.207254         1.475888         2.941807
 H         0.300299         2.469554         1.618840
 H        -3.244463         3.763349         0.288695
 H        -1.812537         4.471404         1.102571
 H        -1.978151         3.089325        -1.588182
 H        -0.245436         3.319521        -0.632446
 H        -2.149332         0.978195        -0.743203
 H        -1.646251        -0.738110         2.409074
 H        -2.442739        -0.643156         0.849383
