19
Iteration:  1705charge 0 multiplicity 1
 O         0.258129        -0.416629         0.354574
 C        -0.633298         0.565938         0.824595
 C        -0.376820         1.788068         1.792414
 C        -1.885306         2.051833         1.236959
 C        -2.145886         3.522327         0.618099
 C        -1.318088         3.036559        -0.574520
 C        -1.434189         1.527666        -0.161745
 O        -2.743181         1.020317         1.867909
 C        -1.920029        -0.054170         1.468334
 H        -0.079679        -0.813132        -0.553591
 H        -0.387910         1.515038         2.978513
 H         0.356143         2.461942         1.442933
 H        -3.137252         3.569559         0.113535
 H        -1.712252         4.339288         1.229431
 H        -1.976783         3.252466        -1.509945
 H        -0.334381         3.493788        -0.813005
 H        -2.232503         0.969349        -0.787148
 H        -1.705137        -0.600906         2.360942
 H        -2.477491        -0.838731         0.897596
