19
Iteration:  3234charge 0 multiplicity 1
 O         0.249217        -0.305847         0.335229
 C        -0.696542         0.576019         0.768333
 C        -0.449596         1.791937         1.699120
 C        -1.897104         2.053307         1.190114
 C        -2.100908         3.464365         0.600278
 C        -1.284221         2.988614        -0.646848
 C        -1.564936         1.395614        -0.186832
 O        -2.686880         1.105216         1.952229
 C        -1.908472        -0.107637         1.548304
 H         0.868886        -0.400569         1.123404
 H        -0.034908         1.667405         2.679424
 H         0.367744         2.438160         1.237331
 H        -3.157250         3.794421         0.284725
 H        -1.815978         4.298835         1.305087
 H        -1.723341         3.012774        -1.739149
 H        -0.194984         3.178219        -0.501502
 H        -2.360176         0.897586        -0.741367
 H        -1.587452        -0.651817         2.540400
 H        -2.559821        -0.703597         0.900130
