19
Iteration:  2077charge 0 multiplicity 1
 O         0.327743        -0.400482         0.417380
 C        -0.710464         0.482202         0.735609
 C        -0.470100         1.684911         1.640020
 C        -1.942328         2.062784         1.231232
 C        -2.160520         3.507046         0.623653
 C        -1.239676         3.046191        -0.585107
 C        -1.460139         1.531416        -0.208879
 O        -2.696182         1.100164         1.921422
 C        -1.989857        -0.113166         1.590675
 H         0.908249        -0.039939        -0.391875
 H        -0.147804         1.573451         2.669272
 H         0.294727         2.474443         1.274621
 H        -3.202188         3.690254         0.132785
 H        -1.956060         4.388324         1.341595
 H        -1.822584         3.194576        -1.441241
 H        -0.192434         3.483316        -0.552046
 H        -2.093981         1.103430        -0.972732
 H        -1.544670        -0.466844         2.466531
 H        -2.689676        -0.753908         1.094331
