19
Iteration:  2738charge 0 multiplicity 1
 O         0.346705        -0.417539         0.509616
 C        -0.630891         0.600427         0.730918
 C        -0.481509         1.802079         1.632316
 C        -1.853720         2.062626         1.246622
 C        -2.186547         3.396291         0.680236
 C        -1.309989         3.028220        -0.556632
 C        -1.477924         1.494513        -0.263885
 O        -2.671595         1.106051         1.919176
 C        -1.976797        -0.064414         1.408922
 H        -0.318134        -1.100691         0.126883
 H        -0.293113         1.671102         2.724750
 H         0.269819         2.495084         1.211921
 H        -3.168566         3.624211         0.372033
 H        -1.689044         4.237653         1.361475
 H        -1.869138         3.253799        -1.459604
 H        -0.220053         3.405602        -0.459440
 H        -2.303522         1.212168        -0.950299
 H        -1.640717        -0.756568         2.404421
 H        -2.569045        -0.628320         0.632673
