19
Iteration:  3504
 O         0.267647        -0.366095         0.428100
 C        -0.701608         0.591478         0.776270
 C        -0.446065         1.850346         1.711063
 C        -1.928855         2.088689         1.181430
 C        -2.080980         3.463551         0.623218
 C        -1.278924         2.968429        -0.627367
 C        -1.519980         1.381788        -0.184780
 O        -2.711372         1.071180         1.951859
 C        -1.892793        -0.110472         1.520687
 H         0.595209         0.010192        -0.518487
 H        -0.302845         1.630712         2.762464
 H         0.202894         2.476040         1.156644
 H        -3.164041         3.748302         0.374730
 H        -1.595358         4.335945         1.207868
 H        -1.752189         3.268742        -1.597567
 H        -0.252077         3.147402        -0.650298
 H        -2.428927         0.858411        -0.691232
 H        -1.605831        -0.580207         2.415120
 H        -2.424357        -0.720574         0.826647
