19
Iteration:  2465
 O         0.355948        -0.346578         0.452839
 C        -0.727194         0.538457         0.718240
 C        -0.405005         1.716512         1.654565
 C        -1.977597         2.031342         1.154190
 C        -2.164808         3.426612         0.627630
 C        -1.215538         3.045600        -0.473417
 C        -1.546267         1.509042        -0.205281
 O        -2.719312         1.100503         1.912738
 C        -1.885048        -0.050451         1.478611
 H         0.017787        -1.150518         0.186874
 H        -0.256674         1.633075         2.735834
 H         0.188939         2.503874         1.142945
 H        -3.180096         3.731004         0.426735
 H        -1.702875         4.292461         1.239060
 H        -1.424265         3.386008        -1.497143
 H        -0.186040         3.510131        -0.474356
 H        -2.339090         0.961091        -0.868261
 H        -1.569647        -0.604222         2.331444
 H        -2.690226        -0.664263         0.838981
