19
Iteration:  4956charge 0 multiplicity 1
 O         0.276435        -0.462625         0.323971
 C        -0.661919         0.608496         0.727959
 C        -0.337739         1.813317         1.636987
 C        -1.855511         2.103452         1.207732
 C        -2.212410         3.479329         0.556521
 C        -1.360797         2.964086        -0.694062
 C        -1.534266         1.380202        -0.246211
 O        -2.698579         1.168345         1.949946
 C        -1.863097        -0.052698         1.750672
 H         0.366549        -0.945561         1.089880
 H        -0.250446         1.652559         2.715783
 H         0.443323         2.451822         1.245541
 H        -3.257172         3.492390         0.299475
 H        -1.946555         4.330806         1.135744
 H        -1.930004         3.152515        -1.649744
 H        -0.419287         3.500062        -0.602932
 H        -2.520696         1.071536        -0.645777
 H        -1.337612        -0.424095         2.704480
 H        -2.497807        -0.860417         1.402669
