19
Iteration:  4688charge 0 multiplicity 1
 O         0.297476        -0.313700         0.326687
 C        -0.699852         0.476866         0.754078
 C        -0.408598         1.728696         1.637351
 C        -1.838259         2.072443         1.185265
 C        -2.288074         3.437705         0.594424
 C        -1.363963         2.908548        -0.675112
 C        -1.576691         1.392033        -0.175829
 O        -2.563283         1.244713         1.983742
 C        -1.934451        -0.019070         1.634600
 H         0.969867        -0.482806         0.944256
 H        -0.232109         1.709839         2.734107
 H         0.511337         2.131940         1.281771
 H        -3.285193         3.624037         0.324506
 H        -1.883311         4.268299         1.033998
 H        -1.576195         3.099475        -1.716047
 H        -0.194120         3.179245        -0.677396
 H        -2.523609         0.987353        -0.684184
 H        -1.537730        -0.437002         2.570528
 H        -2.694317        -0.672425         1.123135
