19
Iteration:  3633
 O         0.373548        -0.252516         0.396623
 C        -0.690854         0.568925         0.753112
 C        -0.387046         1.675776         1.608119
 C        -1.881104         2.066262         1.208514
 C        -2.145957         3.430024         0.616328
 C        -1.302679         2.933052        -0.614949
 C        -1.604245         1.416706        -0.166526
 O        -2.715614         1.162597         1.918473
 C        -1.915986        -0.038772         1.637577
 H         0.038220        -0.932092        -0.111691
 H        -0.035640         1.516232         2.629573
 H         0.131725         2.504608         1.145624
 H        -3.204364         3.591212         0.187035
 H        -1.795018         4.260205         1.133596
 H        -1.672320         3.370788        -1.599314
 H        -0.272065         3.200982        -0.531800
 H        -2.474391         0.924160        -0.739902
 H        -1.438744        -0.522595         2.519228
 H        -2.681224        -0.825734         1.186795
