19
Iteration:  3547
 O         0.287063        -0.400494         0.312099
 C        -0.691505         0.466378         0.829973
 C        -0.367190         1.749363         1.635860
 C        -1.822879         2.075136         1.207482
 C        -2.177215         3.431733         0.591853
 C        -1.284071         3.043842        -0.598192
 C        -1.596504         1.481082        -0.236481
 O        -2.754581         1.152223         1.913957
 C        -1.893285        -0.073564         1.639306
 H         1.195717        -0.218278         0.800483
 H        -0.377550         1.687972         2.713325
 H         0.276071         2.473056         1.205811
 H        -3.278499         3.499462         0.429492
 H        -1.990714         4.356626         1.052707
 H        -1.592071         3.296825        -1.627499
 H        -0.391758         3.435141        -0.314352
 H        -2.398555         0.896572        -0.798592
 H        -1.511026        -0.556380         2.452963
 H        -2.478748        -0.723395         0.988987
