19
Iteration:  2504
 O         0.286405        -0.324278         0.290674
 C        -0.688463         0.534298         0.821595
 C        -0.455118         1.724227         1.818747
 C        -1.912459         2.064660         1.260271
 C        -2.154550         3.451246         0.521650
 C        -1.221721         2.994062        -0.588446
 C        -1.441608         1.487245        -0.084612
 O        -2.753017         1.117661         1.838067
 C        -1.929453        -0.099358         1.567011
 H         0.190999        -0.219404        -0.765501
 H        -0.301278         1.481592         2.844453
 H         0.385422         2.384204         1.385083
 H        -3.211272         3.607418         0.122778
 H        -1.852957         4.207764         1.152057
 H        -1.732095         3.130466        -1.604699
 H        -0.264226         3.336345        -0.404003
 H        -2.213767         1.124625        -0.686808
 H        -1.460836        -0.620357         2.506228
 H        -2.450405        -0.736623         0.962134
