19
Iteration:  1499
 O         0.206794        -0.427129         0.251734
 C        -0.664333         0.547396         0.777290
 C        -0.430340         1.743813         1.780476
 C        -1.828252         2.090809         1.260087
 C        -2.182509         3.485151         0.620437
 C        -1.309453         2.951615        -0.647297
 C        -1.485387         1.489117        -0.181659
 O        -2.694978         1.162771         1.925419
 C        -1.872915        -0.084910         1.566674
 H         1.202608        -0.378090         0.453691
 H        -0.619641         1.647465         2.892445
 H         0.322414         2.311180         1.373576
 H        -3.295906         3.452482         0.306020
 H        -1.960588         4.415277         1.102425
 H        -1.968284         3.215094        -1.551497
 H        -0.337027         3.484086        -0.892268
 H        -2.329917         0.920160        -0.743691
 H        -1.440595        -0.460371         2.568638
 H        -2.500705        -0.788455         0.904655
