19
Iteration:  2532
 O         0.299141        -0.366707         0.334052
 C        -0.683408         0.540518         0.747586
 C        -0.435501         1.781474         1.728040
 C        -1.867778         2.064525         1.201512
 C        -2.168596         3.434172         0.637769
 C        -1.216627         2.915074        -0.549120
 C        -1.520740         1.438503        -0.126272
 O        -2.743449         1.132948         1.870668
 C        -1.971344        -0.030200         1.549469
 H         0.959893         0.256342        -0.241761
 H        -0.375947         1.560076         2.877829
 H         0.280369         2.420937         1.346912
 H        -3.187597         3.515100         0.277095
 H        -2.009110         4.322387         1.414099
 H        -1.638717         3.136271        -1.539820
 H        -0.054339         3.291499        -0.488162
 H        -2.366034         1.008747        -0.838583
 H        -1.538491        -0.593874         2.302841
 H        -2.612064        -0.643897         0.711339
