19
Iteration:  4453charge 0 multiplicity 1
 O         0.244813        -0.343454         0.273423
 C        -0.677677         0.575496         0.827971
 C        -0.403064         1.785309         1.610382
 C        -1.901164         2.056744         1.263958
 C        -2.132307         3.438060         0.558477
 C        -1.352466         2.877334        -0.670250
 C        -1.617251         1.398349        -0.080567
 O        -2.672943         1.198687         2.017352
 C        -1.843447        -0.008459         1.576489
 H         1.018386        -0.313143         0.761591
 H        -0.197025         1.607164         2.726368
 H         0.282848         2.492019         1.143137
 H        -3.114458         3.513811         0.122198
 H        -1.819108         4.359005         0.828510
 H        -1.710219         2.774383        -1.746765
 H        -0.319611         3.189384        -0.850700
 H        -2.325170         0.876240        -0.725328
 H        -1.508939        -0.673352         2.511445
 H        -2.350292        -0.711511         0.907010
