19
Iteration:  2613
 O         0.261128        -0.413198         0.396005
 C        -0.648658         0.589133         0.799863
 C        -0.387115         1.706219         1.768819
 C        -1.857911         2.019344         1.245476
 C        -2.205144         3.449003         0.614164
 C        -1.293825         3.001263        -0.594798
 C        -1.468213         1.460940        -0.218171
 O        -2.716559         1.148198         1.856088
 C        -1.979386        -0.017890         1.489342
 H         0.913775         0.050798        -0.265627
 H        -0.363129         1.479176         2.788348
 H         0.505798         2.405572         1.474833
 H        -3.399930         3.481079         0.404223
 H        -1.791294         4.276860         1.115470
 H        -1.812222         3.238514        -1.587719
 H        -0.387300         3.561785        -0.563951
 H        -2.261568         1.005664        -0.715171
 H        -1.522539        -0.576733         2.481978
 H        -2.529995        -0.915216         0.941822
