19
Iteration:  3225
 O         0.280205        -0.313407         0.291887
 C        -0.702857         0.593525         0.792038
 C        -0.445239         1.751409         1.638434
 C        -1.874797         2.036871         1.239099
 C        -2.105567         3.484990         0.555988
 C        -1.281040         2.874146        -0.593042
 C        -1.574184         1.451933        -0.112995
 O        -2.706719         1.123527         1.916938
 C        -1.897605        -0.045291         1.554180
 H         0.782083        -0.543321         1.148098
 H        -0.351426         1.508243         2.732973
 H         0.134178         2.603674         1.277834
 H        -3.266954         3.372228         0.407626
 H        -1.670625         4.370203         1.093955
 H        -1.616285         3.153417        -1.565847
 H        -0.280422         3.431592        -0.542670
 H        -2.330649         0.870729        -0.724174
 H        -1.485464        -0.601637         2.405427
 H        -2.532851        -0.629943         0.897118
