19
Iteration:  3624
 O         0.360520        -0.267776         0.373622
 C        -0.727848         0.518726         0.736956
 C        -0.426379         1.773198         1.596165
 C        -1.861580         2.105892         1.228188
 C        -2.153367         3.462483         0.592576
 C        -1.328067         2.890511        -0.596033
 C        -1.524232         1.489171        -0.180352
 O        -2.755094         1.143910         1.968432
 C        -1.876681        -0.075630         1.622868
 H         0.000291        -1.064705         0.129667
 H        -0.160057         1.475916         2.628552
 H         0.455276         2.187182         1.200438
 H        -3.228188         3.419689         0.367852
 H        -1.736539         4.325026         0.984575
 H        -1.633077         3.275802        -1.573913
 H        -0.327157         3.205402        -0.554385
 H        -2.289539         0.888600        -0.775548
 H        -1.516358        -0.549546         2.515218
 H        -2.489109        -0.875858         0.966948
