19
Iteration:  2175
 O         0.316628        -0.413598         0.453026
 C        -0.730876         0.576791         0.692364
 C        -0.402050         1.739893         1.680441
 C        -1.865760         2.075656         1.179966
 C        -2.178780         3.421960         0.714094
 C        -1.260924         2.952865        -0.538298
 C        -1.544914         1.474954        -0.223483
 O        -2.752779         1.138792         1.868937
 C        -1.920778        -0.004035         1.480981
 H         0.772313        -0.034295        -0.433958
 H        -0.139798         1.569960         2.721370
 H         0.459967         2.366969         1.330440
 H        -3.274711         3.410866         0.388053
 H        -1.683584         4.250152         1.239275
 H        -1.602145         3.269767        -1.499309
 H        -0.246774         3.269295        -0.280435
 H        -2.399760         1.015716        -0.653730
 H        -1.539925        -0.522895         2.522656
 H        -2.539436        -0.790710         1.044367
