19
Iteration:  3487
 O         0.358255        -0.395012         0.403401
 C        -0.652840         0.529506         0.784370
 C        -0.429213         1.798814         1.671841
 C        -1.884952         2.040091         1.223465
 C        -2.194940         3.481317         0.614559
 C        -1.293692         2.911126        -0.614553
 C        -1.537484         1.529068        -0.141275
 O        -2.709245         1.115706         1.882813
 C        -1.963795        -0.066063         1.577594
 H         0.327861        -0.456002        -0.634364
 H        -0.241148         1.756413         2.783696
 H         0.327008         2.567858         1.390327
 H        -3.187560         3.675271         0.313746
 H        -1.652695         4.233502         1.169216
 H        -1.666836         3.179853        -1.594477
 H        -0.261665         3.472987        -0.680395
 H        -2.233184         1.083341        -0.840906
 H        -1.675890        -0.723980         2.513867
 H        -2.651959        -0.743483         0.977154
