19
Iteration:  3818
 O         0.339253        -0.392244         0.393317
 C        -0.714532         0.533664         0.775793
 C        -0.388950         1.754052         1.627026
 C        -1.902462         2.097164         1.199396
 C        -2.261012         3.467554         0.654633
 C        -1.312973         2.922901        -0.595328
 C        -1.520748         1.354275        -0.223842
 O        -2.633726         1.218854         1.914068
 C        -1.881658        -0.022511         1.638159
 H         0.335736        -0.146166        -0.544466
 H        -0.400732         1.763342         2.710513
 H         0.467094         2.230324         1.208385
 H        -3.453530         3.537155         0.353764
 H        -1.928792         4.316400         1.228790
 H        -1.738329         3.186209        -1.605291
 H        -0.286180         3.206657        -0.450232
 H        -2.281380         0.886656        -0.861467
 H        -1.708282        -0.659864         2.545831
 H        -2.515895        -0.564867         0.954571
