19
Iteration:   280
 O         0.313150        -0.344650         0.276325
 C        -0.743847         0.499143         0.737404
 C        -0.380588         1.726688         1.592005
 C        -1.919381         2.031382         1.204163
 C        -2.193966         3.411240         0.546301
 C        -1.276004         3.001470        -0.554612
 C        -1.528906         1.491216        -0.206303
 O        -2.711147         1.190177         2.024314
 C        -1.923593        -0.067416         1.651473
 H         0.871777        -0.469406         0.987925
 H        -0.088638         1.634024         2.746280
 H         0.465350         2.300546         1.111013
 H        -3.220443         3.534173         0.137952
 H        -1.982226         4.344249         1.056038
 H        -1.577229         3.260501        -1.552391
 H        -0.155753         3.250879        -0.280738
 H        -2.315364         0.925291        -0.910079
 H        -1.449169        -0.438896         2.509319
 H        -2.606547        -0.726404         1.098218
