19
Iteration:  2752charge 0 multiplicity 1
 O         0.364257        -0.381481         0.436037
 C        -0.706646         0.499904         0.775148
 C        -0.422273         1.765698         1.662782
 C        -1.942601         2.046740         1.113887
 C        -2.216565         3.496088         0.674371
 C        -1.264941         3.059832        -0.568396
 C        -1.454937         1.488785        -0.211406
 O        -2.677349         1.109146         1.958721
 C        -1.970991        -0.068458         1.496667
 H         0.116117        -1.143699        -0.162313
 H        -0.307452         1.673393         2.692972
 H         0.350996         2.494091         1.201710
 H        -3.307379         3.562169         0.410698
 H        -1.816684         4.278852         1.263575
 H        -1.502518         3.358142        -1.575402
 H        -0.239261         3.460743        -0.317258
 H        -2.128038         0.848983        -0.896652
 H        -1.757907        -0.759539         2.296109
 H        -2.662887        -0.609379         0.822332
