19
Iteration:   156
 O         0.228302        -0.378999         0.303109
 C        -0.731222         0.549873         0.765743
 C        -0.417864         1.855566         1.608835
 C        -1.873353         2.091185         1.219891
 C        -2.173952         3.442581         0.566413
 C        -1.250617         2.894360        -0.574666
 C        -1.573785         1.424199        -0.140739
 O        -2.673235         1.107742         1.961482
 C        -1.875970        -0.042195         1.579838
 H         0.874198        -0.469480         0.998844
 H        -0.161487         1.878180         2.596084
 H         0.377297         2.622487         1.244932
 H        -3.221911         3.484360         0.273118
 H        -1.887993         4.369354         1.108866
 H        -1.422494         3.250351        -1.635196
 H        -0.244549         3.195148        -0.441069
 H        -2.452825         0.963532        -0.649388
 H        -1.498689        -0.642528         2.369363
 H        -2.503203        -0.634635         0.956174
