19
Iteration:  2143charge 0 multiplicity 1
 O         0.246404        -0.463593         0.405293
 C        -0.696052         0.528065         0.758843
 C        -0.464606         1.764386         1.688398
 C        -1.947049         2.073361         1.152099
 C        -2.142300         3.458362         0.608630
 C        -1.225760         3.119045        -0.624480
 C        -1.510376         1.531680        -0.251517
 O        -2.677671         1.023585         2.030065
 C        -1.916956        -0.113318         1.510996
 H         0.986509         0.058170         0.273193
 H        -0.159895         1.710384         2.753695
 H         0.254248         2.413260         1.148687
 H        -3.257206         3.745823         0.368323
 H        -1.916586         4.379353         1.177811
 H        -1.575497         3.460960        -1.553434
 H        -0.232321         3.466327        -0.334151
 H        -2.198536         1.043636        -0.912669
 H        -1.573987        -0.646280         2.455514
 H        -2.609813        -0.676109         0.906987
