19
Iteration:   245charge 0 multiplicity 1
 O         0.248145        -0.363882         0.313176
 C        -0.704925         0.593409         0.760688
 C        -0.371805         1.796274         1.686730
 C        -1.933471         2.066473         1.184579
 C        -2.167485         3.455902         0.583158
 C        -1.350568         2.913237        -0.585601
 C        -1.523692         1.461344        -0.181899
 O        -2.670164         1.139858         1.951362
 C        -1.859693        -0.072908         1.572276
 H         0.532352        -0.899100         1.017062
 H        -0.313366         1.643294         2.788223
 H         0.469901         2.555520         1.269060
 H        -3.170136         3.740240         0.242277
 H        -1.648996         4.261250         1.109722
 H        -1.677762         3.214661        -1.577603
 H        -0.260969         3.285118        -0.575439
 H        -2.274522         0.894012        -0.842357
 H        -1.459418        -0.641466         2.384303
 H        -2.525195        -0.764581         1.071481
