19
Iteration:  3222charge 0 multiplicity 1
 O         0.293844        -0.315698         0.292914
 C        -0.706139         0.577796         0.768669
 C        -0.428719         1.747387         1.650005
 C        -1.891636         2.065595         1.252388
 C        -2.126401         3.464735         0.559772
 C        -1.272258         2.848586        -0.569829
 C        -1.563736         1.466690        -0.109134
 O        -2.713080         1.128371         1.914883
 C        -1.900111        -0.020434         1.551076
 H         0.770829        -0.634884         0.997364
 H        -0.465901         1.516936         2.687449
 H         0.159276         2.630616         1.270222
 H        -3.214838         3.378829         0.413774
 H        -1.676804         4.401882         1.002948
 H        -1.646949         3.243882        -1.663601
 H        -0.306854         3.354600        -0.613903
 H        -2.293639         0.951719        -0.681678
 H        -1.492233        -0.665742         2.469192
 H        -2.474948        -0.716223         0.916390
