19
Iteration:  4370
 O         0.222874        -0.373992         0.300489
 C        -0.661331         0.554986         0.827723
 C        -0.426870         1.895889         1.695826
 C        -1.859066         2.117439         1.232411
 C        -2.183199         3.432276         0.522858
 C        -1.354207         2.878688        -0.687276
 C        -1.617244         1.424283        -0.141203
 O        -2.615873         1.143265         1.997351
 C        -1.789222        -0.045016         1.572695
 H         0.374843        -1.201963         0.911109
 H        -0.135943         1.832845         2.716439
 H         0.410853         2.329188         1.136198
 H        -3.284837         3.539519         0.148557
 H        -1.956849         4.474581         1.012253
 H        -1.777229         2.961568        -1.709392
 H        -0.358431         3.191146        -0.668424
 H        -2.550089         1.001433        -0.521216
 H        -1.478671        -0.520525         2.470587
 H        -2.276668        -0.746455         0.824991
