19
Iteration:  3097
 O         0.334785        -0.344125         0.318243
 C        -0.667572         0.530610         0.764605
 C        -0.409319         1.772315         1.757334
 C        -1.867165         2.010300         1.204604
 C        -2.115293         3.475427         0.628159
 C        -1.354762         2.926125        -0.631061
 C        -1.570187         1.403530        -0.176481
 O        -2.768966         1.175808         1.923666
 C        -1.927825        -0.040050         1.486730
 H         1.011896        -0.136833         0.879771
 H        -0.285413         1.621729         2.866210
 H         0.282455         2.576360         1.416412
 H        -3.106762         3.802390         0.498186
 H        -1.621288         4.300046         1.024801
 H        -1.719247         3.227423        -1.605097
 H        -0.213223         3.182339        -0.627872
 H        -2.270907         0.784373        -0.813280
 H        -1.628572        -0.495344         2.463060
 H        -2.578231        -0.843498         0.977389
