19
Iteration:   546charge 0 multiplicity 1
 O         0.268887        -0.338070         0.260989
 C        -0.654633         0.611515         0.724344
 C        -0.412564         1.769447         1.710009
 C        -1.904512         2.018883         1.185926
 C        -2.201720         3.454758         0.538790
 C        -1.288535         2.949765        -0.547943
 C        -1.539470         1.434106        -0.212146
 O        -2.668798         1.191661         1.996962
 C        -1.894995        -0.076123         1.601584
 H         0.587701        -0.822770         1.049980
 H        -0.369885         1.476369         2.701047
 H         0.527953         2.433264         1.409706
 H        -3.240425         3.403892         0.254264
 H        -2.008078         4.351969         1.185218
 H        -1.755523         3.191563        -1.592606
 H        -0.242681         3.222582        -0.473486
 H        -2.229248         0.784407        -0.983823
 H        -1.478681        -0.607624         2.460267
 H        -2.651430        -0.764480         1.211506
