19
Iteration:   985
 O         0.243883        -0.333789         0.280685
 C        -0.650707         0.605542         0.734277
 C        -0.307422         1.817813         1.660797
 C        -1.863604         2.060471         1.222169
 C        -2.179470         3.446287         0.649070
 C        -1.312721         2.907179        -0.601185
 C        -1.594812         1.428272        -0.226874
 O        -2.721234         1.117997         1.986379
 C        -1.912122        -0.057026         1.554702
 H         0.737542        -0.663069         1.001284
 H        -0.217792         1.628858         2.754923
 H         0.372628         2.652799         1.362545
 H        -3.185311         3.555120         0.115824
 H        -1.812766         4.340175         1.202487
 H        -1.718968         3.234750        -1.504280
 H        -0.166210         3.123552        -0.456067
 H        -2.262604         0.831733        -0.716543
 H        -1.739041        -0.712300         2.480202
 H        -2.539036        -0.771476         0.927662
