19
Iteration:   760
 O         0.318264        -0.311104         0.318247
 C        -0.781160         0.493583         0.783674
 C        -0.474572         1.848683         1.611785
 C        -1.976896         2.049210         1.180532
 C        -2.134513         3.467242         0.653037
 C        -1.246676         2.985819        -0.652257
 C        -1.545184         1.479043        -0.214688
 O        -2.628171         1.102762         2.014109
 C        -1.886095        -0.144392         1.564717
 H         0.558892        -0.810685         1.173847
 H        -0.149498         1.703292         2.684381
 H         0.335912         2.366143         0.994093
 H        -3.147037         3.683506         0.300907
 H        -1.819009         4.349062         1.284937
 H        -1.667973         3.319804        -1.692700
 H        -0.142213         3.340189        -0.507382
 H        -2.467870         1.070676        -0.794225
 H        -1.422897        -0.723339         2.449262
 H        -2.595731        -0.847030         1.026855
