19
Iteration:  4729
 O         0.220080        -0.354125         0.255831
 C        -0.706921         0.613737         0.793957
 C        -0.383488         1.839394         1.636578
 C        -1.969609         2.086920         1.213397
 C        -2.111871         3.477364         0.538879
 C        -1.323627         2.826793        -0.744935
 C        -1.547041         1.424392        -0.113159
 O        -2.712423         1.083308         2.001521
 C        -1.812404        -0.022087         1.640306
 H         0.785729        -0.741515         1.043830
 H        -0.018764         1.803449         2.702123
 H         0.105877         2.683092         1.147781
 H        -3.155696         3.928704         0.305868
 H        -1.577637         4.157584         1.363986
 H        -1.720443         3.103939        -1.678475
 H        -0.297820         3.183159        -0.654407
 H        -2.337367         0.802258        -0.436477
 H        -1.324861        -0.424228         2.589382
 H        -2.346225        -0.855379         1.271466
