19
Iteration:  3713charge 0 multiplicity 1
 O         0.257096        -0.462837         0.356279
 C        -0.705710         0.532340         0.736989
 C        -0.365512         1.795870         1.684893
 C        -1.857389         2.103501         1.197631
 C        -2.291528         3.393691         0.551080
 C        -1.338395         2.952272        -0.584751
 C        -1.570053         1.473848        -0.158305
 O        -2.613505         1.164468         1.937860
 C        -1.883604         0.001529         1.601790
 H         1.072763        -0.143197         0.611712
 H        -0.011862         1.396898         2.646992
 H         0.534403         2.283513         1.213262
 H        -3.273950         3.425031         0.244498
 H        -1.963771         4.380021         1.034595
 H        -1.720251         3.227824        -1.532272
 H        -0.326166         3.497810        -0.513873
 H        -2.379052         1.135969        -0.859447
 H        -1.567477        -0.449442         2.562135
 H        -2.535996        -0.753920         0.897301
