19
Iteration:  3290
 O         0.204168        -0.417948         0.392525
 C        -0.661565         0.558050         0.758912
 C        -0.344444         1.758261         1.668316
 C        -1.849919         2.101062         1.172218
 C        -2.171426         3.416923         0.624151
 C        -1.330012         2.975709        -0.598183
 C        -1.557090         1.521772        -0.171641
 O        -2.706267         1.110465         1.856662
 C        -1.899852        -0.016478         1.599028
 H         1.176629        -0.173735         0.725030
 H        -0.224816         1.508017         2.741508
 H         0.405030         2.384946         1.248064
 H        -3.304178         3.264328         0.341529
 H        -2.075712         4.344159         1.198144
 H        -1.540945         2.917733        -1.657227
 H        -0.273426         3.428979        -0.506750
 H        -2.295781         1.099712        -0.878094
 H        -1.625025        -0.595089         2.521940
 H        -2.458551        -0.775646         1.004570
