19
Iteration:  3745charge 0 multiplicity 1
 O         0.281964        -0.435163         0.328466
 C        -0.684475         0.519916         0.777418
 C        -0.480700         1.794421         1.608434
 C        -1.877942         2.082268         1.191681
 C        -2.198218         3.414846         0.627878
 C        -1.314194         3.008128        -0.627775
 C        -1.546852         1.420681        -0.231302
 O        -2.682232         1.189267         1.985673
 C        -1.872380        -0.055171         1.646530
 H         1.187742        -0.067445         0.727343
 H        -0.029609         1.612594         2.572458
 H         0.275956         2.417541         1.084586
 H        -3.189935         3.395654         0.297452
 H        -1.858864         4.285517         1.168877
 H        -1.726297         3.343195        -1.540111
 H        -0.273337         3.441828        -0.590046
 H        -2.258499         0.913336        -0.966925
 H        -1.531322        -0.522117         2.556574
 H        -2.517042        -0.842675         1.111709
