19
Iteration:    20
 O         0.285617        -0.367042         0.166180
 C        -0.689203         0.515845         0.882932
 C        -0.337619         1.862268         1.705751
 C        -1.776376         2.094989         1.291306
 C        -2.189975         3.386568         0.555358
 C        -1.269464         2.936454        -0.659255
 C        -1.479204         1.479767        -0.044685
 O        -2.795944         1.151374         1.849508
 C        -1.990732        -0.074512         1.644251
 H         0.620392        -0.956582         0.780733
 H         0.093878         1.991991         2.799581
 H         0.326508         2.447376         1.175463
 H        -3.205505         3.233272         0.125766
 H        -2.155981         4.383437         1.010250
 H        -1.778574         3.002474        -1.575783
 H        -0.295175         3.422631        -0.963304
 H        -2.357432         1.085769        -0.435420
 H        -1.826924        -0.527536         2.623633
 H        -2.481322        -0.779345         1.056995
