19
Iteration:  2642charge 0 multiplicity 1
 O         0.321285        -0.353184         0.326764
 C        -0.713540         0.539422         0.815618
 C        -0.532719         1.803768         1.713570
 C        -1.912292         2.083219         1.251455
 C        -2.173526         3.510231         0.559721
 C        -1.111416         2.950593        -0.605115
 C        -1.559919         1.503311        -0.153884
 O        -2.685472         1.039456         1.954220
 C        -1.921809        -0.103801         1.521974
 H         0.317747        -0.274456        -0.569522
 H        -0.501260         1.674777         2.800150
 H         0.312183         2.402242         1.373100
 H        -3.124427         3.492406         0.087225
 H        -1.947118         4.421072         1.120985
 H        -1.506655         3.235328        -1.514507
 H        -0.057214         3.243209        -0.317783
 H        -2.509870         1.049136        -0.608383
 H        -1.555547        -0.608842         2.318702
 H        -2.512112        -0.792056         0.941801
