19
Iteration:  3848charge 0 multiplicity 1
 O         0.288164        -0.422944         0.458740
 C        -0.684150         0.578582         0.663903
 C        -0.371404         1.788179         1.650939
 C        -1.917351         2.109499         1.282844
 C        -2.281557         3.444732         0.601740
 C        -1.200509         3.015205        -0.731975
 C        -1.555911         1.536026        -0.182085
 O        -2.641138         1.090424         1.969440
 C        -1.873460        -0.102316         1.627170
 H        -0.033074        -0.705465        -0.394729
 H        -0.153027         1.630778         2.774885
 H         0.375961         2.463766         1.244174
 H        -3.278743         3.508353         0.199578
 H        -2.277596         4.385148         1.187843
 H        -1.778322         3.044762        -1.751520
 H        -0.190623         3.281043        -0.580683
 H        -2.324191         1.010587        -0.699036
 H        -1.484043        -0.674914         2.597883
 H        -2.605695        -0.793945         0.990496
