19
Iteration:  4700charge 0 multiplicity 1
 O         0.305273        -0.325712         0.285809
 C        -0.772711         0.508668         0.781708
 C        -0.429431         1.765754         1.596577
 C        -1.881492         2.125677         1.133451
 C        -2.136682         3.454574         0.536665
 C        -1.362918         2.866269        -0.625410
 C        -1.554774         1.384471        -0.155749
 O        -2.611697         1.234448         2.029668
 C        -1.861954        -0.070229         1.627889
 H         0.886240        -0.397155         1.199052
 H        -0.452877         1.606740         2.683598
 H         0.232791         2.452984         1.127348
 H        -3.156997         3.487370         0.349181
 H        -1.872573         4.226588         1.160000
 H        -1.892574         3.152248        -1.545983
 H        -0.288144         3.350373        -0.438384
 H        -2.458777         0.813975        -0.628979
 H        -1.488112        -0.581562         2.503181
 H        -2.619514        -0.802405         1.156266
