19
Iteration:  3555charge 0 multiplicity 1
 O         0.278371        -0.413669         0.311785
 C        -0.679723         0.553202         0.817793
 C        -0.375727         1.732545         1.593583
 C        -1.892554         2.092158         1.216824
 C        -2.209890         3.421772         0.625929
 C        -1.329055         3.019051        -0.576183
 C        -1.512436         1.506815        -0.188037
 O        -2.690382         1.157725         1.878407
 C        -1.913962        -0.079530         1.642429
 H         1.071946        -0.452982         0.917894
 H        -0.289458         1.689566         2.681239
 H         0.476922         2.328772         1.110219
 H        -3.248754         3.256996         0.231321
 H        -2.034381         4.298986         1.187902
 H        -1.512498         3.144754        -1.669532
 H        -0.257314         3.371825        -0.524926
 H        -2.387222         1.122505        -0.805616
 H        -1.709451        -0.571922         2.636540
 H        -2.576398        -0.777579         0.962358
