19
Iteration:  4143charge 0 multiplicity 1
 O         0.292319        -0.333823         0.319140
 C        -0.668848         0.562452         0.749324
 C        -0.417306         1.779839         1.709225
 C        -1.790258         2.104770         1.231229
 C        -2.187378         3.429370         0.564929
 C        -1.429844         2.922036        -0.630335
 C        -1.579125         1.429523        -0.166849
 O        -2.621784         1.179431         1.914760
 C        -1.890178        -0.060354         1.610582
 H         0.467505        -1.045106         1.038285
 H        -0.434299         1.459863         2.753515
 H         0.476882         2.327609         1.250313
 H        -3.245567         3.448838         0.170256
 H        -1.835713         4.452367         1.068857
 H        -1.774820         3.165869        -1.714823
 H        -0.423226         3.332989        -0.633845
 H        -2.409586         0.755706        -0.714877
 H        -1.492591        -0.420236         2.544533
 H        -2.514577        -0.744980         1.036784
