19
Iteration:  3265
 O         0.310223        -0.428205         0.380528
 C        -0.664640         0.515907         0.679939
 C        -0.499449         1.774755         1.664110
 C        -1.921514         2.096885         1.171477
 C        -2.133727         3.471805         0.644882
 C        -1.335799         3.043587        -0.580999
 C        -1.526487         1.394901        -0.199108
 O        -2.689998         1.162723         1.936736
 C        -1.892471        -0.044117         1.581565
 H         1.084719        -0.347550         0.959468
 H        -0.239014         1.536121         2.668714
 H         0.225701         2.453868         1.120814
 H        -3.122808         3.648905         0.335196
 H        -1.822891         4.318248         1.279886
 H        -1.647155         3.021284        -1.735212
 H        -0.303844         3.314752        -0.644782
 H        -2.268835         0.957499        -0.817666
 H        -1.663780        -0.651730         2.544672
 H        -2.496620        -0.780938         1.030606
