19
Iteration:  4430charge 0 multiplicity 1
 O         0.302527        -0.362959         0.285849
 C        -0.642972         0.553269         0.695431
 C        -0.363967         1.798079         1.616116
 C        -1.821005         2.062095         1.169035
 C        -2.224582         3.475393         0.573170
 C        -1.368442         2.936447        -0.647936
 C        -1.567807         1.365852        -0.188413
 O        -2.654771         1.177276         1.997330
 C        -1.986294        -0.054052         1.731374
 H         0.978041        -0.441469         1.051201
 H        -0.061387         1.500290         2.686017
 H         0.363776         2.489877         1.189478
 H        -3.237279         3.548214         0.271813
 H        -1.915428         4.360670         1.090128
 H        -1.685989         3.087062        -1.713889
 H        -0.324817         3.361484        -0.702896
 H        -2.544353         1.023437        -0.618236
 H        -1.609779        -0.399260         2.798795
 H        -2.642626        -0.936638         1.386288
