19
Iteration:  2263charge 0 multiplicity 1
 O         0.301633        -0.424944         0.426364
 C        -0.797003         0.488318         0.741564
 C        -0.458410         1.678808         1.564796
 C        -1.871831         2.062921         1.195585
 C        -2.233900         3.512213         0.664013
 C        -1.239891         3.060449        -0.541428
 C        -1.487612         1.530190        -0.196535
 O        -2.649974         1.145420         1.879421
 C        -1.939644        -0.133162         1.556928
 H         1.176574         0.177879         0.420946
 H        -0.110691         1.464631         2.585187
 H         0.287758         2.239267         1.195890
 H        -3.312015         3.582449         0.346635
 H        -2.031121         4.463866         1.029907
 H        -1.502735         3.373802        -1.571960
 H        -0.292028         3.375546        -0.213582
 H        -2.313148         1.189476        -0.757138
 H        -1.453062        -0.631369         2.555982
 H        -2.557118        -0.898887         1.057278
