19
Iteration:  3825
 O         0.312072        -0.382322         0.425131
 C        -0.682264         0.467589         0.753264
 C        -0.391215         1.793378         1.603591
 C        -1.866601         2.078321         1.202687
 C        -2.220934         3.387573         0.604954
 C        -1.335756         2.945443        -0.534040
 C        -1.550520         1.432838        -0.238010
 O        -2.679565         1.187198         1.954296
 C        -1.856948         0.030341         1.597017
 H         0.269245        -0.320738        -0.631585
 H        -0.262176         1.690634         2.745010
 H         0.459500         2.351110         1.170048
 H        -3.193234         3.489197         0.271755
 H        -1.999717         4.412034         1.017438
 H        -1.723797         3.148435        -1.601131
 H        -0.340681         3.268812        -0.233199
 H        -2.295011         0.893903        -0.804229
 H        -1.661456        -0.528852         2.595414
 H        -2.534493        -0.641929         0.896583
