19
Iteration:   421charge 0 multiplicity 1
 O         0.221584        -0.400794         0.181474
 C        -0.644400         0.625174         0.820852
 C        -0.393427         1.855345         1.838710
 C        -1.809083         2.100901         1.197237
 C        -2.222842         3.379305         0.622849
 C        -1.296036         2.916914        -0.672333
 C        -1.514319         1.417872        -0.175244
 O        -2.680033         1.117229         1.889324
 C        -1.934456        -0.009512         1.610468
 H         0.705619        -0.850601         0.887832
 H        -0.206631         1.689720         2.976190
 H         0.359874         2.469663         1.433002
 H        -3.314481         3.416463         0.351964
 H        -1.969111         4.301259         1.103365
 H        -1.861894         2.980024        -1.526628
 H        -0.228135         3.306963        -0.618304
 H        -2.410383         0.951279        -0.631410
 H        -1.402121        -0.380974         2.470096
 H        -2.579340        -0.510914         0.863301
