19
Iteration:  1786
 O         0.319611        -0.356743         0.406451
 C        -0.674881         0.629333         0.736830
 C        -0.510707         1.736953         1.795033
 C        -1.888977         2.045790         1.185941
 C        -2.072954         3.462532         0.669237
 C        -1.312496         2.967105        -0.581494
 C        -1.543776         1.478945        -0.232560
 O        -2.661718         1.102124         1.873494
 C        -1.907220        -0.055732         1.499477
 H        -0.238681        -0.921153        -0.302478
 H        -0.473301         1.388215         2.736887
 H         0.372612         2.485467         1.574646
 H        -3.146731         3.692437         0.476734
 H        -1.802413         4.341241         1.227545
 H        -1.699052         3.245405        -1.513459
 H        -0.264956         3.359052        -0.525992
 H        -2.184734         0.831094        -0.840444
 H        -1.682369        -0.692349         2.343542
 H        -2.484428        -0.564880         0.839181
