19
Iteration:  2353charge 0 multiplicity 1
 O         0.382794        -0.334617         0.396763
 C        -0.759611         0.569429         0.657929
 C        -0.442545         1.678920         1.645223
 C        -1.943455         2.083191         1.205519
 C        -2.138130         3.408560         0.604221
 C        -1.218168         2.986617        -0.456289
 C        -1.511601         1.470486        -0.202867
 O        -2.718258         1.128724         1.942662
 C        -1.976502        -0.030202         1.551123
 H         0.485624        -0.293166        -0.664898
 H        -0.344218         1.342986         2.641647
 H         0.446100         2.311576         1.521110
 H        -3.195045         3.609230         0.218322
 H        -2.026058         4.294628         1.134143
 H        -1.474759         3.373065        -1.432276
 H        -0.230939         3.273067        -0.344326
 H        -2.253916         1.025105        -0.914564
 H        -1.427463        -0.482462         2.443011
 H        -2.747473        -0.896061         1.275473
