19
Iteration:   256charge 0 multiplicity 1
 O         0.293965        -0.343657         0.290148
 C        -0.734132         0.478809         0.724105
 C        -0.490903         1.800119         1.645723
 C        -1.883166         2.062526         1.138689
 C        -2.217776         3.492612         0.639078
 C        -1.237051         3.001689        -0.631595
 C        -1.553873         1.430013        -0.198478
 O        -2.583614         1.150757         1.959498
 C        -1.915887        -0.115875         1.671136
 H         0.574753        -0.761963         1.185795
 H        -0.336553         1.623563         2.744431
 H         0.432547         2.568594         1.305423
 H        -3.257565         3.656990         0.304906
 H        -1.981555         4.340809         1.302514
 H        -1.668909         3.089901        -1.624932
 H        -0.105451         3.273872        -0.557009
 H        -2.464782         0.988566        -0.794753
 H        -1.673703        -0.505017         2.633807
 H        -2.504428        -0.719725         0.995558
