19
Iteration:   122
 O         0.256348        -0.419284         0.263091
 C        -0.665055         0.502927         0.718513
 C        -0.412237         1.767396         1.834683
 C        -1.811087         2.121500         1.256903
 C        -2.125043         3.430618         0.521471
 C        -1.427769         2.979373        -0.707680
 C        -1.419212         1.452470        -0.171236
 O        -2.733418         1.145461         1.921095
 C        -1.914086        -0.014902         1.618285
 H         1.011007        -0.357718         0.966292
 H        -0.536282         1.520796         2.801781
 H         0.404949         2.515411         1.472404
 H        -3.200190         3.513970         0.554628
 H        -1.713608         4.258332         1.118363
 H        -2.159293         3.013737        -1.562686
 H        -0.559524         3.490172        -0.829639
 H        -2.255138         0.968340        -0.641226
 H        -1.487533        -0.470728         2.468192
 H        -2.592958        -0.678586         1.206249
