19
Iteration:  2661charge 0 multiplicity 1
 O         0.263813        -0.258960         0.350585
 C        -0.737101         0.612998         0.734841
 C        -0.394729         1.776325         1.687039
 C        -2.018985         2.031883         1.187566
 C        -2.149086         3.433484         0.573133
 C        -1.190352         2.910190        -0.489629
 C        -1.480899         1.434570        -0.169972
 O        -2.727764         1.121770         1.927011
 C        -1.893919        -0.081942         1.569442
 H         0.233627        -0.515262        -0.532421
 H        -0.270173         1.483289         2.810669
 H         0.276962         2.532205         1.432675
 H        -3.117099         3.599985         0.234747
 H        -1.672090         4.257984         1.244357
 H        -1.377829         3.236876        -1.585050
 H        -0.109811         3.021424        -0.158946
 H        -2.181668         0.971749        -0.943396
 H        -1.596618        -0.806795         2.444583
 H        -2.402715        -0.724284         0.868442
