19
Iteration:  1560charge 0 multiplicity 1
 O         0.353806        -0.341470         0.471142
 C        -0.683035         0.506704         0.690842
 C        -0.399687         1.674953         1.592338
 C        -1.889631         2.072977         1.209911
 C        -2.222047         3.476190         0.660904
 C        -1.251602         3.020053        -0.563564
 C        -1.616763         1.455900        -0.210744
 O        -2.646647         1.124242         1.911554
 C        -1.971135        -0.052915         1.544477
 H         0.241198        -0.691881        -0.429528
 H        -0.149273         1.653539         2.623245
 H         0.453186         2.437258         1.235058
 H        -3.203357         3.662802         0.380420
 H        -1.750794         4.313526         1.305510
 H        -1.608349         3.369822        -1.472258
 H        -0.224044         3.377738        -0.420903
 H        -2.454709         1.076487        -0.725230
 H        -1.596927        -0.449063         2.449622
 H        -2.628654        -0.855752         1.206366
