19
Iteration:  2240
 O         0.258333        -0.415817         0.373075
 C        -0.687516         0.631180         0.750125
 C        -0.404028         1.774441         1.651856
 C        -1.901851         2.029590         1.180381
 C        -2.139691         3.412092         0.615372
 C        -1.194487         2.996493        -0.518851
 C        -1.570894         1.472524        -0.189806
 O        -2.741393         1.103575         1.948284
 C        -1.944877        -0.042220         1.515834
 H         1.018932        -0.069327        -0.065722
 H        -0.177858         1.506056         2.693249
 H         0.353537         2.508114         1.475645
 H        -3.174161         3.469500         0.255685
 H        -2.056704         4.337278         1.194316
 H        -1.653535         3.202021        -1.480163
 H        -0.110708         3.277142        -0.383844
 H        -2.396657         1.181723        -0.773538
 H        -1.558826        -0.732052         2.439610
 H        -2.417019        -0.710568         0.808522
