19
Iteration:  2977charge 0 multiplicity 1
 O         0.387199        -0.340079         0.465981
 C        -0.660016         0.521796         0.745495
 C        -0.462794         1.742829         1.725528
 C        -1.893183         2.042336         1.165857
 C        -2.110008         3.453370         0.698129
 C        -1.339595         2.977060        -0.615877
 C        -1.575733         1.465940        -0.255175
 O        -2.716988         1.160683         1.906917
 C        -1.894375        -0.094586         1.502253
 H         0.094084        -0.912420        -0.381053
 H        -0.401319         1.628457         2.817365
 H         0.227975         2.662833         1.553125
 H        -3.134025         3.700214         0.505106
 H        -1.803440         4.397095         1.201434
 H        -1.762541         3.356032        -1.506944
 H        -0.144311         3.131529        -0.624026
 H        -2.382226         1.073922        -0.883438
 H        -1.776012        -0.667773         2.448145
 H        -2.423548        -0.538311         0.677093
