19
Iteration:  4027
 O         0.234976        -0.405263         0.476943
 C        -0.664350         0.595115         0.787821
 C        -0.420051         1.874508         1.639647
 C        -1.903918         2.031774         1.187490
 C        -2.108925         3.449163         0.623858
 C        -1.344255         2.967395        -0.609053
 C        -1.611341         1.405624        -0.233000
 O        -2.624727         1.119970         1.970230
 C        -1.865494        -0.077199         1.558753
 H         0.565137        -0.188899        -0.431777
 H        -0.297585         1.757295         2.689346
 H         0.225332         2.485938         1.041866
 H        -3.142257         3.630629         0.292851
 H        -1.702497         4.231208         1.146080
 H        -1.843806         3.152943        -1.557609
 H        -0.287544         3.349442        -0.710967
 H        -2.321580         0.878500        -0.825491
 H        -1.563622        -0.793717         2.431917
 H        -2.392110        -0.630922         0.679077
