19
Iteration:  1828
 O         0.327244        -0.348361         0.414325
 C        -0.691246         0.467397         0.825347
 C        -0.385012         1.708156         1.651612
 C        -1.843310         2.111273         1.274601
 C        -2.170505         3.482540         0.656033
 C        -1.317203         3.044145        -0.572061
 C        -1.471820         1.497378        -0.171309
 O        -2.704847         1.111812         1.787170
 C        -1.995819        -0.132052         1.572127
 H         0.284271        -0.529617        -0.561886
 H        -0.192938         1.503776         2.659391
 H         0.232761         2.537605         1.124804
 H        -3.295596         3.548966         0.326467
 H        -1.863589         4.380991         1.141390
 H        -1.614927         3.404277        -1.487662
 H        -0.217012         3.345830        -0.569275
 H        -2.373694         1.072078        -0.741273
 H        -1.853782        -0.571581         2.527754
 H        -2.576241        -0.788791         0.888840
