19
Iteration:  3156
 O         0.243013        -0.404389         0.339545
 C        -0.608435         0.544610         0.768184
 C        -0.387926         1.800194         1.628735
 C        -1.919454         2.071590         1.187305
 C        -2.264440         3.427352         0.616726
 C        -1.231155         2.986881        -0.588875
 C        -1.585150         1.504386        -0.167098
 O        -2.671070         1.115394         1.928109
 C        -1.865393        -0.053959         1.556204
 H         0.496310        -0.994899         1.173055
 H        -0.266264         1.631183         2.696168
 H         0.195259         2.725184         1.446770
 H        -3.308081         3.354330         0.199519
 H        -1.866496         4.407934         1.047094
 H        -1.560201         3.279437        -1.747092
 H        -0.214528         3.166292        -0.369333
 H        -2.269949         1.066538        -0.835741
 H        -1.625810        -0.478731         2.613277
 H        -2.404575        -0.639255         0.836943
