19
Iteration:   447
 O         0.298389        -0.350616         0.288518
 C        -0.672129         0.578843         0.734378
 C        -0.410956         1.712234         1.583783
 C        -1.866909         2.101784         1.204741
 C        -2.221227         3.461507         0.592020
 C        -1.272104         2.943500        -0.608848
 C        -1.506148         1.516394        -0.115732
 O        -2.727225         1.121123         1.938133
 C        -1.916214        -0.094830         1.660710
 H         0.649092        -0.716974         1.170652
 H        -0.203112         1.569657         2.677650
 H         0.353671         2.374736         1.060621
 H        -3.268739         3.471818         0.350033
 H        -1.882409         4.455742         0.986680
 H        -1.717045         3.038091        -1.678190
 H        -0.339686         3.373378        -0.291709
 H        -2.365132         1.022556        -0.794577
 H        -1.464425        -0.507809         2.550208
 H        -2.529698        -0.773369         1.085903
