19
Iteration:  2344
 O         0.354195        -0.344990         0.400764
 C        -0.708852         0.500064         0.659218
 C        -0.490347         1.673428         1.679937
 C        -1.879078         2.045876         1.251815
 C        -2.181814         3.443097         0.657277
 C        -1.205178         3.026632        -0.571618
 C        -1.525558         1.507975        -0.190422
 O        -2.737316         1.142394         1.931650
 C        -1.934498        -0.081425         1.588785
 H         0.646269        -0.235990        -0.601347
 H        -0.547363         1.498381         2.725756
 H         0.295208         2.405929         1.278345
 H        -3.197868         3.487778         0.186781
 H        -1.763767         4.400000         1.094769
 H        -1.521651         3.335823        -1.536220
 H        -0.154926         3.385201        -0.473197
 H        -2.402935         1.155434        -0.856399
 H        -1.513193        -0.555198         2.418436
 H        -2.622236        -0.759793         0.916269
