19
Iteration:  4144charge 0 multiplicity 1
 O         0.299592        -0.330200         0.313614
 C        -0.656433         0.566736         0.754555
 C        -0.406436         1.768671         1.710495
 C        -1.797133         2.119322         1.225353
 C        -2.187218         3.427988         0.564630
 C        -1.428712         2.924513        -0.637017
 C        -1.592891         1.419727        -0.153751
 O        -2.626098         1.172005         1.906712
 C        -1.899622        -0.048599         1.613440
 H         0.459228        -1.088261         1.054720
 H        -0.409530         1.443247         2.739971
 H         0.441307         2.316506         1.228906
 H        -3.264479         3.462996         0.181405
 H        -1.813733         4.414151         1.063609
 H        -1.781315         3.162908        -1.704732
 H        -0.405667         3.353528        -0.601312
 H        -2.380170         0.782736        -0.708840
 H        -1.506861        -0.455164         2.542761
 H        -2.506117        -0.727120         1.103616
