19
Iteration:  1740charge 0 multiplicity 1
 O         0.406363        -0.278813         0.378136
 C        -0.731751         0.458904         0.704905
 C        -0.391271         1.683502         1.668106
 C        -1.854944         2.068035         1.203333
 C        -2.170953         3.423242         0.637991
 C        -1.247851         3.028100        -0.488116
 C        -1.549266         1.499594        -0.217679
 O        -2.746315         1.141222         1.897820
 C        -2.001706        -0.059573         1.525047
 H         0.124115        -1.218068         0.058329
 H        -0.289585         1.511284         2.776361
 H         0.475985         2.300275         1.306803
 H        -3.248702         3.654373         0.314884
 H        -1.992413         4.331578         1.186554
 H        -1.498961         3.482461        -1.455297
 H        -0.153710         3.253139        -0.293980
 H        -2.473088         1.105448        -0.784464
 H        -1.551530        -0.400839         2.416896
 H        -2.592705        -0.768999         1.016674
