19
Iteration:  3569charge 0 multiplicity 1
 O         0.233249        -0.405976         0.324892
 C        -0.689258         0.509017         0.711990
 C        -0.348772         1.814068         1.679873
 C        -1.856369         2.079029         1.183762
 C        -2.315506         3.425760         0.623560
 C        -1.240054         2.964990        -0.591708
 C        -1.458564         1.475348        -0.135038
 O        -2.653764         1.149372         1.911354
 C        -1.934309        -0.030109         1.561114
 H         0.654484        -0.646529         1.139836
 H        -0.040096         1.525627         2.680484
 H         0.268524         2.509906         1.186026
 H        -3.348322         3.568460         0.272659
 H        -2.173260         4.283115         1.201202
 H        -1.902097         3.176428        -1.412254
 H        -0.334941         3.423545        -0.594635
 H        -2.244461         0.881755        -0.719972
 H        -1.486601        -0.447958         2.398604
 H        -2.565136        -0.758672         1.021552
