19
Iteration:  2901charge 0 multiplicity 1
 O         0.279642        -0.397563         0.370906
 C        -0.677466         0.618113         0.793663
 C        -0.488852         1.773824         1.754680
 C        -1.909482         2.075029         1.188995
 C        -2.206968         3.436975         0.631229
 C        -1.235208         3.026010        -0.589673
 C        -1.419410         1.417538        -0.207841
 O        -2.707075         1.123355         1.893907
 C        -1.882084        -0.063005         1.520701
 H        -0.248106        -0.902771        -0.164289
 H        -0.323460         1.360633         2.742713
 H         0.439020         2.406681         1.424797
 H        -3.281713         3.427705         0.333466
 H        -1.972441         4.479734         1.280392
 H        -1.786724         3.179501        -1.453290
 H        -0.191634         3.526044        -0.463629
 H        -2.160727         1.000654        -0.836218
 H        -1.407947        -0.622024         2.396336
 H        -2.406736        -0.613745         0.766216
