19
Iteration:    57
 O         0.253881        -0.386871         0.309996
 C        -0.720814         0.550816         0.689097
 C        -0.479298         1.803077         1.746853
 C        -1.921627         2.091529         1.164476
 C        -2.171801         3.395450         0.562559
 C        -1.213236         2.982208        -0.646432
 C        -1.580866         1.442939        -0.215682
 O        -2.608786         1.152035         2.032445
 C        -1.852709        -0.041072         1.595567
 H         0.545585        -0.765657         1.082778
 H        -0.590884         1.625917         2.750789
 H         0.412394         2.556759         1.575427
 H        -3.146628         3.415273         0.084646
 H        -2.032125         4.301077         1.174375
 H        -1.689228         3.278046        -1.643239
 H        -0.183557         3.166517        -0.600303
 H        -2.445587         1.056715        -0.820099
 H        -1.449083        -0.519520         2.473125
 H        -2.472189        -0.788222         1.044180
