19
Iteration:  2338
 O         0.331933        -0.364346         0.382790
 C        -0.700329         0.494281         0.748245
 C        -0.498269         1.693965         1.697757
 C        -1.866152         2.054477         1.223384
 C        -2.170343         3.480185         0.650200
 C        -1.202932         3.034482        -0.626272
 C        -1.547954         1.537812        -0.205280
 O        -2.729579         1.131621         1.917924
 C        -1.916835        -0.120910         1.548068
 H         0.679119        -0.225069        -0.464718
 H        -0.315777         1.536430         2.829408
 H         0.218403         2.411651         1.340954
 H        -3.204008         3.485050         0.379561
 H        -1.886195         4.343479         1.342808
 H        -1.682270         3.217792        -1.642056
 H        -0.147439         3.358322        -0.396001
 H        -2.362829         1.125223        -0.733297
 H        -1.628086        -0.667018         2.543199
 H        -2.491089        -0.688870         0.919940
