19
Iteration:  3767charge 0 multiplicity 1
 O         0.193138        -0.392335         0.382005
 C        -0.646914         0.586562         0.700655
 C        -0.378417         1.838053         1.684640
 C        -1.909748         2.065761         1.166498
 C        -2.170920         3.547101         0.623593
 C        -1.350607         2.851048        -0.656797
 C        -1.602058         1.450586        -0.100747
 O        -2.663698         1.084645         1.935010
 C        -1.829367        -0.072018         1.558616
 H         1.022562        -0.067549         0.529629
 H        -0.221191         1.645419         2.744744
 H         0.402855         2.577825         1.356089
 H        -3.122775         3.705384         0.277540
 H        -1.711304         4.366554         1.155558
 H        -1.654357         3.011202        -1.641254
 H        -0.235746         3.067784        -0.679245
 H        -2.480406         1.034381        -0.685854
 H        -1.481796        -0.449244         2.483195
 H        -2.356742        -0.910623         1.031361
