19
Iteration:  4924charge 0 multiplicity 1
 O         0.198370        -0.402234         0.317634
 C        -0.650330         0.556777         0.771053
 C        -0.277098         1.829435         1.645037
 C        -1.874916         2.149003         1.157759
 C        -2.315900         3.413354         0.549170
 C        -1.329563         2.906122        -0.656076
 C        -1.511293         1.381129        -0.160350
 O        -2.594494         1.214482         1.971465
 C        -1.929564        -0.065465         1.647985
 H         0.727981        -0.828148         1.132598
 H        -0.051465         1.721791         2.721111
 H         0.506919         2.384039         1.127945
 H        -3.388709         3.356038         0.302989
 H        -2.086158         4.305974         1.182643
 H        -1.751452         2.977508        -1.689316
 H        -0.383352         3.405130        -0.548319
 H        -2.439961         1.060848        -0.570300
 H        -1.586293        -0.556687         2.624865
 H        -2.560433        -0.596435         0.991387
