19
Iteration:  1209
 O         0.292160        -0.331050         0.189134
 C        -0.659788         0.500159         0.831742
 C        -0.341735         1.754981         1.735430
 C        -1.864403         2.077073         1.233799
 C        -2.189575         3.357132         0.553209
 C        -1.285943         3.037908        -0.613747
 C        -1.507279         1.483238        -0.141014
 O        -2.754488         1.228456         1.881490
 C        -1.958080        -0.102747         1.685159
 H         0.696959        -0.908058         0.773247
 H        -0.115250         1.514353         2.764283
 H         0.480915         2.305437         1.376822
 H        -3.237065         3.324109         0.234954
 H        -2.030329         4.314856         1.129032
 H        -1.863889         3.047837        -1.708109
 H        -0.397253         3.559394        -0.679054
 H        -2.301998         1.001679        -0.685777
 H        -1.574863        -0.642276         2.585038
 H        -2.594731        -0.892953         1.020795
