19
Iteration:   394charge 0 multiplicity 1
 O         0.273440        -0.351958         0.252692
 C        -0.700373         0.530469         0.828899
 C        -0.446513         1.749252         1.697001
 C        -1.936823         2.100411         1.222326
 C        -2.207761         3.478310         0.504154
 C        -1.285071         3.021037        -0.598688
 C        -1.519599         1.406570        -0.153564
 O        -2.676200         1.148348         2.019548
 C        -1.826682        -0.112570         1.559343
 H         0.575919        -1.027182         0.889533
 H        -0.162484         1.568949         2.710638
 H         0.391723         2.459281         1.296715
 H        -3.199572         3.713749         0.153151
 H        -1.837054         4.404892         1.026299
 H        -1.844088         3.079396        -1.634503
 H        -0.282734         3.416386        -0.710873
 H        -2.221926         0.930202        -0.838347
 H        -1.365606        -0.555042         2.518164
 H        -2.554731        -0.546080         0.882526
