19
Iteration:  2430
 O         0.362337        -0.367230         0.452844
 C        -0.702665         0.514075         0.711245
 C        -0.454353         1.726784         1.764821
 C        -1.807731         2.037245         1.209314
 C        -2.129625         3.436695         0.707408
 C        -1.345877         3.074659        -0.590773
 C        -1.514972         1.518820        -0.225238
 O        -2.681366         1.140925         1.813254
 C        -1.963951        -0.073313         1.440223
 H         0.106291        -1.263194         0.616131
 H        -0.318230         1.649478         2.794815
 H         0.350433         2.461114         1.320047
 H        -3.236430         3.537347         0.445870
 H        -1.701335         4.284611         1.196346
 H        -1.993590         3.219828        -1.472460
 H        -0.334208         3.439274        -0.484702
 H        -2.392797         1.054382        -0.781705
 H        -1.733270        -0.541898         2.427521
 H        -2.619982        -0.768833         0.835020
