19
Iteration:  1660charge 0 multiplicity 1
 O         0.299856        -0.363575         0.418872
 C        -0.723983         0.554955         0.635722
 C        -0.430758         1.693640         1.645656
 C        -1.891728         2.055330         1.149054
 C        -2.151023         3.448039         0.685791
 C        -1.253311         3.044030        -0.499882
 C        -1.549123         1.429752        -0.230318
 O        -2.710800         1.183643         1.948325
 C        -1.941158        -0.089766         1.568773
 H         1.091792         0.169082        -0.033002
 H        -0.501471         1.168305         2.696693
 H         0.342901         2.339937         1.287096
 H        -3.193460         3.431677         0.347274
 H        -1.762221         4.213144         1.415648
 H        -1.533128         3.449109        -1.527679
 H        -0.196150         3.286351        -0.480776
 H        -2.284350         0.931187        -0.928925
 H        -1.494062        -0.734342         2.293908
 H        -2.622917        -0.738910         0.963106
