19
Iteration:  3734
 O         0.269221        -0.394071         0.360048
 C        -0.668684         0.505038         0.713125
 C        -0.335774         1.695197         1.599158
 C        -1.931325         2.007469         1.145584
 C        -2.244433         3.479965         0.631194
 C        -1.338207         3.055017        -0.661108
 C        -1.464161         1.423375        -0.205889
 O        -2.703512         1.224598         2.033970
 C        -1.902475        -0.082518         1.655426
 H         1.230097        -0.195349         0.651675
 H        -0.197592         1.631813         2.695716
 H         0.286434         2.429870         1.035313
 H        -3.254203         3.454480         0.353852
 H        -2.253391         4.402706         1.204832
 H        -1.644659         3.248625        -1.640666
 H        -0.233822         3.292770        -0.540523
 H        -2.206433         0.907412        -0.923846
 H        -1.562665        -0.375325         2.621179
 H        -2.613821        -0.822644         1.071241
