19
Iteration:   765
 O         0.317100        -0.295015         0.330639
 C        -0.782386         0.502706         0.743027
 C        -0.418228         1.842951         1.567438
 C        -1.979277         2.056194         1.173152
 C        -2.143710         3.428317         0.656906
 C        -1.226967         3.004744        -0.639724
 C        -1.556310         1.460612        -0.143764
 O        -2.669047         1.122448         2.018584
 C        -1.896076        -0.183720         1.573769
 H         0.619898        -0.821010         1.108478
 H        -0.151019         1.735645         2.600946
 H         0.300982         2.458465         1.044748
 H        -3.197260         3.639046         0.389412
 H        -1.808319         4.303164         1.201789
 H        -1.520411         3.237564        -1.634490
 H        -0.235920         3.318816        -0.682913
 H        -2.338532         1.199855        -0.819764
 H        -1.465850        -0.647697         2.476520
 H        -2.555826        -0.737155         0.919810
