19
Iteration:  2120
 O         0.183864        -0.471700         0.335537
 C        -0.650687         0.632843         0.744583
 C        -0.448939         1.757410         1.769795
 C        -1.874217         2.121972         1.233930
 C        -2.176454         3.484810         0.632827
 C        -1.294528         2.964944        -0.598630
 C        -1.492077         1.510790        -0.112382
 O        -2.673671         1.091351         1.847735
 C        -1.876650        -0.102765         1.486780
 H         1.140648        -0.185640         0.408332
 H        -0.315892         1.447771         2.798081
 H         0.365048         2.520235         1.496469
 H        -3.263060         3.603114         0.370548
 H        -1.946893         4.505209         1.083593
 H        -1.856568         2.963129        -1.479480
 H        -0.259765         3.408011        -0.707654
 H        -2.190922         0.946724        -0.677651
 H        -1.646619        -0.625535         2.461912
 H        -2.446884        -0.674837         0.790369
