19
Iteration:  3115
 O         0.332333        -0.342437         0.375339
 C        -0.696502         0.581211         0.767685
 C        -0.453821         1.723550         1.637013
 C        -1.899854         2.043838         1.212136
 C        -2.085232         3.436340         0.637886
 C        -1.353132         2.958311        -0.671239
 C        -1.472217         1.479005        -0.206494
 O        -2.700648         1.141019         1.905657
 C        -1.980060        -0.056489         1.605833
 H         1.052717        -0.473378         0.906865
 H        -0.322149         1.508377         2.702002
 H         0.444200         2.407625         1.414451
 H        -3.228588         3.650959         0.415776
 H        -1.832730         4.215060         1.434633
 H        -2.004461         3.041343        -1.493314
 H        -0.360144         3.421606        -0.796717
 H        -2.333227         0.944259        -0.759960
 H        -1.717261        -0.629903         2.472189
 H        -2.531236        -0.584299         0.771755
