19
Iteration:  1855
 O         0.286499        -0.396448         0.449568
 C        -0.712486         0.585721         0.687222
 C        -0.507970         1.752895         1.661116
 C        -2.011600         2.052227         1.230963
 C        -2.143658         3.407617         0.617288
 C        -1.211915         2.953892        -0.486264
 C        -1.523894         1.503927        -0.261349
 O        -2.630456         1.120368         1.992412
 C        -1.875244         0.000228         1.453344
 H         0.407570        -0.670420        -0.522967
 H        -0.404755         1.366742         2.766764
 H         0.240968         2.452846         1.377213
 H        -3.110411         3.722363         0.254158
 H        -1.978404         4.391562         1.226687
 H        -1.507855         3.410039        -1.530266
 H        -0.180501         3.195842        -0.353855
 H        -2.065221         1.057226        -1.079522
 H        -1.536605        -0.611787         2.360587
 H        -2.536772        -0.708899         0.972756
