19
Iteration:  2445charge 0 multiplicity 1
 O         0.398013        -0.355202         0.462537
 C        -0.710617         0.507135         0.767593
 C        -0.411026         1.747000         1.567192
 C        -1.885888         2.107349         1.188744
 C        -2.166586         3.489953         0.743639
 C        -1.294858         3.042846        -0.540681
 C        -1.453686         1.497421        -0.247411
 O        -2.717796         1.110249         1.850623
 C        -2.018602        -0.128698         1.516891
 H         0.142639        -1.243583         0.587766
 H        -0.207815         1.558104         2.689652
 H         0.337666         2.378254         1.172451
 H        -3.179004         3.635660         0.482343
 H        -2.042289         4.336505         1.526210
 H        -1.615559         3.414139        -1.429688
 H        -0.286214         3.429626        -0.802882
 H        -2.271771         1.045031        -0.877998
 H        -1.693439        -0.794683         2.268332
 H        -2.782136        -0.725061         0.784289
