19
Iteration:  1498
 O         0.211958        -0.423651         0.251282
 C        -0.673479         0.547802         0.780096
 C        -0.424357         1.737464         1.782152
 C        -1.833243         2.084384         1.263613
 C        -2.182477         3.477945         0.621836
 C        -1.314290         2.954965        -0.651716
 C        -1.486592         1.485073        -0.178805
 O        -2.695338         1.167691         1.924221
 C        -1.870098        -0.072784         1.561711
 H         1.157925        -0.389915         0.460232
 H        -0.588434         1.624301         2.876252
 H         0.281718         2.321965         1.363384
 H        -3.277426         3.426672         0.292935
 H        -1.948549         4.445307         1.119840
 H        -1.920220         3.213171        -1.554181
 H        -0.317722         3.486410        -0.884721
 H        -2.332992         0.916786        -0.733056
 H        -1.450754        -0.443739         2.527168
 H        -2.472230        -0.818447         0.938012
