19
Iteration:  4545
 O         0.241363        -0.445180         0.298168
 C        -0.658466         0.540022         0.758941
 C        -0.358402         1.855691         1.676122
 C        -1.917305         2.108205         1.216071
 C        -2.188021         3.491862         0.520260
 C        -1.393050         2.911264        -0.644075
 C        -1.550439         1.437662        -0.187816
 O        -2.609602         1.128412         2.030043
 C        -1.857433        -0.010605         1.626127
 H         0.728048        -0.820391         1.072010
 H        -0.257879         1.774658         2.755553
 H         0.494165         2.439911         1.273526
 H        -3.227465         3.524244         0.133301
 H        -1.996144         4.415681         1.078913
 H        -1.968947         2.946654        -1.595727
 H        -0.368371         3.400704        -0.957554
 H        -2.246116         0.858749        -0.849391
 H        -1.663131        -0.526530         2.569441
 H        -2.539168        -0.686913         1.042989
