19
Iteration:  2506charge 0 multiplicity 1
 O         0.289861        -0.326650         0.286394
 C        -0.677724         0.534853         0.817656
 C        -0.455409         1.735626         1.815395
 C        -1.911074         2.061333         1.269353
 C        -2.151594         3.436025         0.516471
 C        -1.245331         2.988407        -0.578121
 C        -1.428089         1.497442        -0.079242
 O        -2.759665         1.125402         1.839714
 C        -1.937863        -0.112112         1.566755
 H         0.191755        -0.141697        -0.724463
 H        -0.263052         1.430281         2.807899
 H         0.406966         2.374913         1.342654
 H        -3.175574         3.646388         0.090364
 H        -1.832262         4.239539         1.176089
 H        -1.706195         3.168052        -1.691183
 H        -0.189429         3.353558        -0.390224
 H        -2.248905         1.051431        -0.706992
 H        -1.546147        -0.593815         2.552888
 H        -2.452644        -0.741433         0.952890
