19
Iteration:  1212
 O         0.279274        -0.329292         0.189997
 C        -0.655985         0.506439         0.797983
 C        -0.354529         1.756423         1.745258
 C        -1.840967         2.084762         1.211767
 C        -2.190180         3.372663         0.542335
 C        -1.322864         3.018965        -0.583314
 C        -1.479783         1.476394        -0.150689
 O        -2.760663         1.231319         1.900097
 C        -1.959219        -0.101035         1.680376
 H         0.741501        -0.981234         0.777911
 H        -0.241983         1.414002         2.755418
 H         0.532120         2.419739         1.347156
 H        -3.180780         3.236327         0.277070
 H        -2.006877         4.243996         1.065806
 H        -1.715452         3.098989        -1.569677
 H        -0.374199         3.631144        -0.686509
 H        -2.276263         0.901424        -0.725222
 H        -1.645339        -0.604531         2.627055
 H        -2.506715        -0.890658         1.120097
