19
Iteration:  3893charge 0 multiplicity 1
 O         0.403286        -0.320596         0.355878
 C        -0.696476         0.564136         0.787528
 C        -0.372951         1.767434         1.607831
 C        -1.896550         2.065478         1.192635
 C        -2.156098         3.431802         0.726492
 C        -1.296229         2.862634        -0.669431
 C        -1.538214         1.477624        -0.242086
 O        -2.756365         1.159605         1.937851
 C        -1.959309         0.008607         1.602534
 H         0.188873        -1.255675         0.448951
 H        -0.174656         1.527014         2.667790
 H         0.261819         2.567598         1.221229
 H        -3.233787         3.504190         0.560661
 H        -1.933073         4.272350         1.329930
 H        -2.016348         3.135831        -1.468321
 H        -0.286229         3.152914        -0.648577
 H        -2.269609         1.113372        -0.901189
 H        -1.487320        -0.535372         2.519361
 H        -2.422190        -0.764683         0.865458
