19
Iteration:   762charge 0 multiplicity 1
 O         0.320905        -0.306857         0.326683
 C        -0.787707         0.492656         0.770082
 C        -0.452538         1.849074         1.600495
 C        -1.985528         2.050939         1.176210
 C        -2.138832         3.448078         0.656402
 C        -1.233149         2.994754        -0.648014
 C        -1.552419         1.469187        -0.189646
 O        -2.643801         1.112584         2.016814
 C        -1.890220        -0.161644         1.564397
 H         0.553810        -0.770867         1.089781
 H        -0.153678         1.716583         2.599345
 H         0.360719         2.427376         0.981380
 H        -3.135686         3.659230         0.353637
 H        -1.815406         4.357930         1.258174
 H        -1.610759         3.305650        -1.715480
 H        -0.219683         3.321716        -0.584014
 H        -2.352704         1.167346        -0.749036
 H        -1.404335        -0.717828         2.502702
 H        -2.589553        -0.808144         0.969378
