19
Iteration:  3496charge 0 multiplicity 1
 O         0.317213        -0.390114         0.401024
 C        -0.690916         0.617087         0.820019
 C        -0.429630         1.852578         1.693243
 C        -1.948993         2.056545         1.228085
 C        -2.099514         3.453093         0.606691
 C        -1.317241         2.985982        -0.642926
 C        -1.511072         1.435018        -0.203550
 O        -2.682235         1.077627         1.912346
 C        -1.980650        -0.101602         1.533649
 H         0.562030        -0.297313        -0.616712
 H        -0.212396         1.725556         2.803660
 H         0.309573         2.483909         1.240757
 H        -3.034988         3.866697         0.292316
 H        -1.754867         4.231362         1.409261
 H        -1.645591         3.071795        -1.674357
 H        -0.198022         3.163822        -0.501597
 H        -2.340320         0.886108        -0.468646
 H        -1.571076        -0.639890         2.503575
 H        -2.556224        -0.811422         0.941242
