19
Iteration:  2040
 O         0.230762        -0.418893         0.447355
 C        -0.694400         0.641280         0.680483
 C        -0.421593         1.824388         1.716477
 C        -1.912051         2.051753         1.251682
 C        -2.179593         3.440895         0.639678
 C        -1.244689         2.914232        -0.517138
 C        -1.538619         1.518002        -0.186456
 O        -2.650182         1.067734         1.869693
 C        -1.911558        -0.041860         1.471124
 H         0.635503        -0.307046        -0.459854
 H        -0.307650         1.486865         2.785416
 H         0.051298         2.719427         1.429061
 H        -3.087414         3.720760         0.153016
 H        -1.782211         4.302678         1.261151
 H        -1.479791         3.236914        -1.578933
 H        -0.170033         3.063935        -0.562771
 H        -2.272463         0.930138        -0.758564
 H        -1.586241        -0.695154         2.419623
 H        -2.479236        -0.759722         0.937039
