19
Iteration:  2664charge 0 multiplicity 1
 O         0.271670        -0.254156         0.355957
 C        -0.724219         0.611944         0.762335
 C        -0.403851         1.754542         1.672291
 C        -2.020129         2.009970         1.197828
 C        -2.156571         3.446357         0.603209
 C        -1.180863         2.905086        -0.516095
 C        -1.461665         1.441059        -0.197147
 O        -2.741671         1.129472         1.921921
 C        -1.894591        -0.070986         1.580863
 H         0.220810        -0.606327        -0.650714
 H        -0.318334         1.467005         2.697492
 H         0.388008         2.524015         1.438039
 H        -3.135963         3.612702         0.222361
 H        -1.723252         4.207443         1.228863
 H        -1.470141         3.250165        -1.450811
 H        -0.127485         3.053349        -0.149544
 H        -2.221600         0.893418        -0.875717
 H        -1.594360        -0.631615         2.343284
 H        -2.415295        -0.678673         0.878484
