19
Iteration:  4926
 O         0.205199        -0.408215         0.313685
 C        -0.651658         0.567601         0.784589
 C        -0.276720         1.800325         1.639590
 C        -1.870528         2.136257         1.170484
 C        -2.326528         3.411157         0.555692
 C        -1.322634         2.909628        -0.674419
 C        -1.510185         1.377372        -0.157336
 O        -2.593699         1.227484         1.952619
 C        -1.928579        -0.061917         1.652737
 H         0.695446        -0.825689         1.152506
 H        -0.068881         1.736763         2.722016
 H         0.436711         2.435004         1.064941
 H        -3.418858         3.342364         0.248551
 H        -2.053121         4.349851         1.232513
 H        -1.803198         2.972448        -1.598944
 H        -0.406401         3.476534        -0.497134
 H        -2.426156         1.096644        -0.522588
 H        -1.549705        -0.509406         2.628526
 H        -2.561608        -0.599238         1.007344
