19
Iteration:  3174charge 0 multiplicity 1
 O         0.254913        -0.363107         0.255951
 C        -0.719792         0.578803         0.778986
 C        -0.431701         1.847906         1.705487
 C        -1.880013         2.062551         1.232355
 C        -2.259508         3.427528         0.544376
 C        -1.239758         2.945047        -0.548356
 C        -1.438740         1.460610        -0.200442
 O        -2.692224         1.130437         1.952832
 C        -1.861444        -0.029371         1.577632
 H         0.235530        -1.092762         1.003708
 H        -0.322577         1.534268         2.769231
 H         0.389544         2.261813         1.211033
 H        -3.173252         3.428063         0.033751
 H        -2.171519         4.212054         1.243277
 H        -1.516635         3.115014        -1.580289
 H        -0.231334         3.400015        -0.565328
 H        -2.239088         0.950159        -0.772382
 H        -1.458297        -0.516109         2.484647
 H        -2.559174        -0.811798         1.108696
