19
Iteration:  1039charge 0 multiplicity 1
 O         0.321330        -0.337290         0.330559
 C        -0.687399         0.553089         0.731523
 C        -0.422913         1.671289         1.657179
 C        -1.826870         2.101508         1.203691
 C        -2.151371         3.411448         0.655691
 C        -1.364715         2.986631        -0.702363
 C        -1.596232         1.492996        -0.157257
 O        -2.727577         1.141914         1.934510
 C        -1.830518        -0.021211         1.586341
 H         0.420548        -0.976421         0.990853
 H        -0.258150         1.348849         2.715709
 H         0.387643         2.416386         1.373812
 H        -3.277808         3.647878         0.445030
 H        -1.859360         4.289566         1.291110
 H        -1.816274         3.093723        -1.622313
 H        -0.236049         3.312965        -0.650829
 H        -2.383010         0.979371        -0.673287
 H        -1.474336        -0.417737         2.586088
 H        -2.458456        -0.646136         0.959863
