19
Iteration:  3266
 O         0.310786        -0.427569         0.384824
 C        -0.668744         0.517804         0.675637
 C        -0.489279         1.775697         1.668974
 C        -1.922617         2.095990         1.175408
 C        -2.139440         3.468978         0.645952
 C        -1.338805         3.045350        -0.581468
 C        -1.521003         1.390497        -0.200136
 O        -2.692157         1.166426         1.934148
 C        -1.891518        -0.045364         1.579549
 H         1.053067        -0.358495         0.918407
 H        -0.236601         1.523994         2.675716
 H         0.217168         2.444064         1.113237
 H        -3.161282         3.641343         0.310029
 H        -1.790961         4.315384         1.284415
 H        -1.636576         3.062420        -1.740101
 H        -0.274370         3.301822        -0.654798
 H        -2.290649         0.946820        -0.799607
 H        -1.655046        -0.640629         2.563097
 H        -2.485908        -0.778299         1.019763
