19
Iteration:  4226charge 0 multiplicity 1
 O         0.345888        -0.348923         0.407403
 C        -0.698709         0.538433         0.726668
 C        -0.422603         1.743802         1.610806
 C        -1.858230         2.091398         1.237320
 C        -2.186974         3.443819         0.529928
 C        -1.351619         2.972407        -0.627678
 C        -1.562282         1.471853        -0.151447
 O        -2.652226         1.101039         1.998620
 C        -1.903654        -0.002830         1.624448
 H         0.250880        -1.335027         0.089006
 H         0.028011         1.672631         2.597572
 H         0.220032         2.514319         1.197223
 H        -3.175886         3.490727         0.037098
 H        -2.080855         4.442420         0.898959
 H        -1.707199         3.007673        -1.661801
 H        -0.322455         3.293077        -0.630643
 H        -2.427426         1.126909        -0.649285
 H        -1.541960        -0.383887         2.604219
 H        -2.544395        -0.699192         0.991292
