19
Iteration:  2474
 O         0.326555        -0.356410         0.430379
 C        -0.699019         0.590668         0.720910
 C        -0.480142         1.748272         1.687493
 C        -1.945225         2.058947         1.214073
 C        -2.146718         3.457237         0.628771
 C        -1.220306         3.001135        -0.539469
 C        -1.528348         1.498293        -0.225238
 O        -2.695512         1.102058         1.894514
 C        -1.902866        -0.086899         1.515610
 H        -0.016497        -1.044657        -0.069724
 H        -0.332052         1.475529         2.700620
 H         0.356464         2.536972         1.448076
 H        -3.199320         3.639272         0.239361
 H        -1.882949         4.241686         1.356880
 H        -1.541475         3.463217        -1.601852
 H        -0.119457         3.179484        -0.250369
 H        -2.381811         1.125056        -0.892861
 H        -1.413952        -0.705123         2.310211
 H        -2.508441        -0.783654         0.900214
