19
Iteration:  1770
 O         0.321664        -0.301513         0.417112
 C        -0.740961         0.510332         0.745996
 C        -0.469271         1.770784         1.634979
 C        -1.927765         2.071553         1.214259
 C        -2.140987         3.491047         0.637694
 C        -1.184152         3.002422        -0.567903
 C        -1.509212         1.503597        -0.184857
 O        -2.707629         1.052505         1.983849
 C        -1.931498        -0.100463         1.431166
 H         0.057488        -1.133815        -0.040009
 H        -0.282665         1.808365         2.832840
 H         0.326416         2.428745         1.326673
 H        -3.155275         3.767133         0.263998
 H        -1.712935         4.302643         1.303767
 H        -1.659442         3.304378        -1.561106
 H        -0.123273         3.221317        -0.400353
 H        -2.378524         1.185448        -0.810369
 H        -1.522207        -0.705731         2.283910
 H        -2.542845        -0.916505         0.815946
