19
Iteration:  2042
 O         0.225566        -0.411222         0.456642
 C        -0.690565         0.638106         0.679690
 C        -0.424614         1.828347         1.703794
 C        -1.914810         2.047216         1.246321
 C        -2.175107         3.427736         0.638827
 C        -1.247003         2.913521        -0.515890
 C        -1.556778         1.520418        -0.195505
 O        -2.633145         1.065955         1.869434
 C        -1.915133        -0.051718         1.479635
 H         0.668364        -0.357281        -0.504989
 H        -0.356833         1.480293         2.750149
 H         0.052430         2.826266         1.454418
 H        -3.110925         3.800909         0.163935
 H        -1.770824         4.339691         1.297083
 H        -1.430010         3.227842        -1.526485
 H        -0.094519         3.072367        -0.498892
 H        -2.248958         0.940639        -0.760073
 H        -1.620020        -0.690396         2.386585
 H        -2.498611        -0.736389         0.946283
