19
Iteration:  2994
 O         0.323466        -0.425702         0.514248
 C        -0.698652         0.590662         0.759056
 C        -0.398490         1.725161         1.679775
 C        -1.880460         2.119327         1.243912
 C        -2.172892         3.489834         0.611294
 C        -1.337077         3.023933        -0.623533
 C        -1.476195         1.508000        -0.132856
 O        -2.707241         1.063552         1.879588
 C        -1.911110        -0.086593         1.437989
 H         0.249298        -0.651314        -0.502047
 H        -0.193904         1.579983         2.770039
 H         0.420569         2.381019         1.314784
 H        -3.264173         3.645834         0.298498
 H        -1.800728         4.293385         1.297278
 H        -1.928736         3.014828        -1.602844
 H        -0.413176         3.527687        -0.606030
 H        -2.318822         0.988434        -0.737491
 H        -1.469156        -0.493244         2.346988
 H        -2.654427        -0.671121         0.782967
