19
Iteration:  1601charge 0 multiplicity 1
 O         0.252004        -0.362466         0.227539
 C        -0.682183         0.644261         0.751013
 C        -0.449148         1.778482         1.809094
 C        -1.854299         2.050441         1.212733
 C        -2.175867         3.426376         0.610343
 C        -1.287277         2.934647        -0.584050
 C        -1.484207         1.522884        -0.110073
 O        -2.696421         1.077317         1.880462
 C        -1.904600        -0.014552         1.544789
 H        -0.036874        -1.188406         0.654371
 H        -0.127520         1.587353         2.781381
 H         0.401822         2.433142         1.357745
 H        -3.185335         3.622620         0.370142
 H        -1.926390         4.262031         1.206080
 H        -1.703585         3.113359        -1.553645
 H        -0.227604         3.162389        -0.537724
 H        -2.174396         0.951076        -0.658377
 H        -1.322641        -0.614445         2.383656
 H        -2.552544        -0.604821         0.818794
