19
Iteration:  3056
 O         0.203936        -0.372942         0.314308
 C        -0.716743         0.589504         0.749888
 C        -0.427171         1.787500         1.681901
 C        -1.948477         2.088216         1.258050
 C        -2.156915         3.451190         0.526781
 C        -1.211725         3.001203        -0.591875
 C        -1.505346         1.468990        -0.221008
 O        -2.699097         1.096250         1.960455
 C        -1.906611        -0.144011         1.620609
 H         1.184892        -0.027360         0.393812
 H        -0.417705         1.607688         2.748544
 H         0.250443         2.440174         1.290299
 H        -3.163839         3.395268         0.164508
 H        -1.965056         4.278694         1.290160
 H        -1.234775         3.281291        -1.704839
 H        -0.222279         3.312514        -0.359894
 H        -2.159836         1.041141        -0.876107
 H        -1.473057        -0.642167         2.535150
 H        -2.426451        -0.906224         1.190175
