19
Iteration:   419charge 0 multiplicity 1
 O         0.216685        -0.404995         0.168323
 C        -0.638929         0.635861         0.813891
 C        -0.420569         1.848667         1.846986
 C        -1.803761         2.089228         1.188758
 C        -2.220011         3.387794         0.624010
 C        -1.297361         2.897293        -0.676547
 C        -1.502000         1.437434        -0.168741
 O        -2.672187         1.113612         1.907531
 C        -1.947804        -0.016774         1.611658
 H         0.721489        -0.877832         0.972389
 H        -0.290447         1.725129         2.887988
 H         0.431038         2.536711         1.428452
 H        -3.302267         3.431152         0.354947
 H        -1.961326         4.333473         1.101710
 H        -1.835831         3.019805        -1.616535
 H        -0.301151         3.368791        -0.655753
 H        -2.288733         0.973521        -0.603219
 H        -1.376922        -0.415416         2.548501
 H        -2.560083        -0.520934         0.840735
