19
Iteration:  2703
 O         0.378269        -0.357679         0.451899
 C        -0.662440         0.475060         0.780340
 C        -0.404170         1.688583         1.692693
 C        -1.847276         2.111765         1.221998
 C        -2.181243         3.502616         0.646399
 C        -1.369972         3.060335        -0.609230
 C        -1.499814         1.555875        -0.194738
 O        -2.735635         1.075239         1.805043
 C        -1.919935        -0.113637         1.523131
 H        -0.068665        -1.121620         0.064672
 H        -0.303280         1.409351         2.820946
 H         0.430695         2.219040         1.352853
 H        -3.219053         3.853145         0.368506
 H        -1.653944         4.428345         1.130151
 H        -1.721150         3.414725        -1.655199
 H        -0.398389         3.584964        -0.595098
 H        -2.401366         1.139988        -0.618697
 H        -1.703501        -0.658932         2.621572
 H        -2.634933        -0.849603         1.033062
