19
Iteration:  2053
 O         0.237992        -0.384073         0.473897
 C        -0.677093         0.584456         0.721541
 C        -0.495495         1.857090         1.612553
 C        -1.944757         2.049195         1.141711
 C        -2.135533         3.457589         0.642808
 C        -1.181431         2.986842        -0.541933
 C        -1.614511         1.441355        -0.231230
 O        -2.639725         1.076788         1.948462
 C        -1.885767        -0.123870         1.500720
 H         0.633939        -0.436977        -0.426026
 H        -0.495534         1.594063         2.687296
 H         0.390709         2.587416         1.576969
 H        -3.218921         3.654235         0.472659
 H        -1.698346         4.289254         1.377753
 H        -1.410515         3.372566        -1.507464
 H        -0.202639         3.270487        -0.033911
 H        -2.387566         1.115123        -0.900340
 H        -1.521853        -0.708705         2.419025
 H        -2.465946        -0.590744         0.786171
