19
Iteration:  3163charge 0 multiplicity 1
 O         0.250136        -0.402777         0.314806
 C        -0.671612         0.608007         0.729135
 C        -0.377946         1.800587         1.684823
 C        -1.956485         2.107218         1.168612
 C        -2.262081         3.422031         0.608038
 C        -1.188585         2.953005        -0.594028
 C        -1.533520         1.461137        -0.161104
 O        -2.673065         1.137877         1.934257
 C        -1.873441        -0.069032         1.575969
 H         0.428729        -1.126042         1.057203
 H        -0.156984         1.751888         2.787344
 H         0.203415         2.644308         1.407702
 H        -3.253950         3.321002         0.297038
 H        -2.160735         4.366863         1.073236
 H        -1.641090         3.246274        -1.518774
 H        -0.144565         3.290829        -0.387708
 H        -2.268646         0.957288        -0.834963
 H        -1.383172        -0.563093         2.439214
 H        -2.508302        -0.776410         0.913178
