19
Iteration:  1425
 O         0.230507        -0.354056         0.293150
 C        -0.676762         0.631732         0.739796
 C        -0.380412         1.798758         1.798755
 C        -1.868049         2.088918         1.202509
 C        -2.109711         3.529386         0.605998
 C        -1.377928         2.902872        -0.654815
 C        -1.497568         1.438058        -0.208982
 O        -2.708906         1.090094         1.999582
 C        -1.885271        -0.044442         1.500399
 H         0.335405        -1.019927         0.907719
 H        -0.327673         1.273465         2.831789
 H         0.368939         2.519806         1.448160
 H        -3.220540         3.482121         0.412428
 H        -1.747161         4.347731         1.195017
 H        -1.766164         3.301485        -1.666849
 H        -0.369606         3.125185        -0.784955
 H        -2.123174         0.764896        -0.792218
 H        -1.527223        -0.642702         2.404128
 H        -2.437484        -0.796756         0.916168
