19
Iteration:     1
 O         0.249484        -0.357869         0.302582
 C        -0.695838         0.548530         0.770319
 C        -0.418805         1.783314         1.666982
 C        -1.886064         2.081507         1.202576
 C        -2.172201         3.440881         0.578760
 C        -1.281787         2.931910        -0.626119
 C        -1.526423         1.447917        -0.160446
 O        -2.666248         1.152009         1.942028
 C        -1.905330        -0.043336         1.600367
 H         0.657240        -0.796614         1.058145
 H        -0.286829         1.622241         2.739305
 H         0.340283         2.458666         1.277033
 H        -3.216737         3.544590         0.272629
 H        -1.859977         4.335086         1.123872
 H        -1.688831         3.138981        -1.616143
 H        -0.250815         3.285027        -0.596151
 H        -2.317924         0.963056        -0.735206
 H        -1.563904        -0.543062         2.514803
 H        -2.524216        -0.733202         1.015717
