19
Iteration:  4599
 O         0.321148        -0.275569         0.307944
 C        -0.710512         0.494215         0.714737
 C        -0.393459         1.782869         1.526070
 C        -1.864189         2.111932         1.218236
 C        -2.225144         3.486825         0.620687
 C        -1.305364         2.851400        -0.679526
 C        -1.557117         1.433050        -0.135790
 O        -2.701674         1.169035         1.989276
 C        -1.873523        -0.059362         1.717414
 H         0.453960        -1.077573         0.864100
 H        -0.148002         1.629942         2.584091
 H         0.395769         2.442827         1.123665
 H        -3.184234         3.615169         0.151904
 H        -1.958842         4.323948         1.120412
 H        -1.591554         2.932197        -1.738786
 H        -0.177950         3.078929        -0.738234
 H        -2.468682         0.946467        -0.549451
 H        -1.494502        -0.381493         2.721240
 H        -2.602170        -0.742312         1.283047
