19
Iteration:  4276charge 0 multiplicity 1
 O         0.289372        -0.507843         0.409368
 C        -0.699835         0.645119         0.763657
 C        -0.438415         1.824909         1.641698
 C        -1.906314         2.083868         1.223916
 C        -2.204181         3.428261         0.576854
 C        -1.347430         2.935911        -0.744526
 C        -1.528191         1.506957        -0.182445
 O        -2.646991         1.123496         2.006806
 C        -1.853452        -0.073924         1.638218
 H         0.871500        -0.206541        -0.257581
 H        -0.266622         1.640759         2.761337
 H         0.334770         2.560057         1.329676
 H        -3.273834         3.685964         0.432193
 H        -1.764118         4.318104         1.041182
 H        -1.848244         2.986463        -1.707317
 H        -0.257239         3.355773        -0.864192
 H        -2.410299         1.024795        -0.731617
 H        -1.429188        -0.462855         2.587808
 H        -2.518508        -0.705637         1.110358
