19
Iteration:  2046charge 0 multiplicity 1
 O         0.225108        -0.394408         0.456770
 C        -0.677935         0.621796         0.692028
 C        -0.440347         1.844626         1.667915
 C        -1.923878         2.043044         1.220551
 C        -2.154801         3.429962         0.644773
 C        -1.223340         2.929492        -0.518907
 C        -1.587140         1.504996        -0.207975
 O        -2.618031         1.067218         1.884271
 C        -1.903269        -0.079685         1.505909
 H         0.615201        -0.445373        -0.340923
 H        -0.434640         1.509717         2.684430
 H         0.104148         2.838371         1.545280
 H        -3.144503         3.858269         0.273098
 H        -1.820698         4.242912         1.252241
 H        -1.419951         3.265508        -1.532514
 H        -0.131844         3.116978        -0.297236
 H        -2.318127         0.958039        -0.850296
 H        -1.633713        -0.629938         2.316371
 H        -2.616914        -0.747211         0.808251
