19
Iteration:  3644
 O         0.385279        -0.298813         0.405763
 C        -0.731843         0.518902         0.694936
 C        -0.351356         1.782495         1.655045
 C        -1.938977         2.015805         1.176162
 C        -2.128609         3.430080         0.637077
 C        -1.261592         2.978695        -0.627147
 C        -1.636377         1.416626        -0.194704
 O        -2.680499         1.152933         1.919844
 C        -1.932286        -0.020851         1.670105
 H         0.290324        -0.734412        -0.446151
 H        -0.256759         1.613089         2.740210
 H         0.397518         2.483662         1.271840
 H        -3.269836         3.630489         0.405986
 H        -1.899230         4.179549         1.297814
 H        -1.732962         2.987817        -1.657949
 H        -0.223213         3.181454        -0.676114
 H        -2.618910         0.975313        -0.661212
 H        -1.632315        -0.315042         2.687997
 H        -2.568473        -0.857378         1.055716
