19
Iteration:  1153
 O         0.284253        -0.364842         0.319549
 C        -0.659404         0.565883         0.760919
 C        -0.531554         1.789014         1.596239
 C        -1.937775         2.058648         1.121631
 C        -2.105892         3.484249         0.699675
 C        -1.245229         2.965237        -0.665503
 C        -1.556117         1.471917        -0.244720
 O        -2.646980         1.082365         2.059304
 C        -1.937563        -0.044355         1.594321
 H         0.816755        -0.725946         1.121122
 H        -0.319310         1.562512         2.656440
 H         0.152487         2.474583         1.269661
 H        -3.166987         3.697299         0.419115
 H        -1.839876         4.278529         1.456715
 H        -1.806834         3.137474        -1.725685
 H        -0.225015         3.201825        -0.597168
 H        -2.245502         0.988868        -0.901736
 H        -1.362816        -0.548017         2.404323
 H        -2.534639        -0.766236         0.844594
