19
Iteration:  4605
 O         0.323062        -0.315704         0.307308
 C        -0.714643         0.482027         0.691671
 C        -0.418739         1.775890         1.544587
 C        -1.939119         2.097796         1.267888
 C        -2.185873         3.465925         0.587173
 C        -1.301974         2.837912        -0.699363
 C        -1.527264         1.481758        -0.163602
 O        -2.690688         1.173266         1.993291
 C        -1.838304        -0.009932         1.736530
 H         0.480219        -1.024175         0.831911
 H        -0.262576         1.673486         2.629478
 H         0.326679         2.372307         0.998205
 H        -3.289870         3.517817         0.282430
 H        -1.958837         4.417940         1.344008
 H        -1.665587         2.902849        -1.750763
 H        -0.291388         3.139308        -0.617618
 H        -2.396745         1.112656        -0.723438
 H        -1.468109        -0.371180         2.717390
 H        -2.495181        -0.765786         1.258636
