19
Iteration:  2873charge 0 multiplicity 1
 O         0.380407        -0.473742         0.531970
 C        -0.716605         0.510207         0.732417
 C        -0.381493         1.786289         1.664668
 C        -1.857424         2.088271         1.215500
 C        -2.242280         3.497512         0.668940
 C        -1.311146         3.054525        -0.545330
 C        -1.485643         1.537466        -0.213592
 O        -2.679817         1.158429         1.837952
 C        -1.980578        -0.139235         1.489673
 H         0.318248        -0.808886        -0.343424
 H        -0.060767         1.546127         2.696866
 H         0.312099         2.368698         1.154649
 H        -3.287437         3.404779         0.415246
 H        -1.923658         4.325917         1.112086
 H        -1.806044         3.230753        -1.573355
 H        -0.399115         3.542937        -0.456626
 H        -2.407135         1.236384        -0.845921
 H        -1.602283        -0.756561         2.307246
 H        -2.661194        -0.797640         0.838381
