19
Iteration:  3374
 O         0.421337        -0.288034         0.381743
 C        -0.667156         0.520142         0.798264
 C        -0.430209         1.710604         1.660515
 C        -1.881744         2.050905         1.200214
 C        -2.109798         3.498695         0.603495
 C        -1.305710         2.990367        -0.645917
 C        -1.575704         1.452798        -0.169236
 O        -2.743071         1.116094         1.880343
 C        -1.981622        -0.072421         1.602219
 H        -0.004367        -1.002606         0.069955
 H        -0.092203         1.441712         2.649016
 H         0.356363         2.489245         1.532870
 H        -3.079322         3.754171         0.200052
 H        -1.819697         4.310791         1.380882
 H        -1.701665         3.178838        -1.757925
 H        -0.348887         3.351660        -0.490896
 H        -2.415901         1.142158        -0.744613
 H        -1.702670        -0.628826         2.616686
 H        -2.631353        -0.828518         1.116620
