19
Iteration:  3277
 O         0.269460        -0.431304         0.385977
 C        -0.707796         0.569826         0.775012
 C        -0.339759         1.752337         1.658923
 C        -1.884074         2.034177         1.213793
 C        -2.235191         3.436323         0.629438
 C        -1.299222         2.976693        -0.640081
 C        -1.517917         1.446452        -0.236497
 O        -2.730360         1.176232         1.892348
 C        -1.897537        -0.060973         1.557578
 H         1.037321        -0.231990         0.863279
 H        -0.235687         1.596152         2.715828
 H         0.426046         2.497222         1.323057
 H        -3.270045         3.620999         0.382527
 H        -1.723426         4.242453         1.171695
 H        -1.779265         3.675238        -1.453417
 H        -0.253768         3.259987        -0.489118
 H        -2.356545         0.925536        -0.622347
 H        -1.402790        -0.368653         2.549793
 H        -2.511985        -0.733363         0.962576
