19
Iteration:   710charge 0 multiplicity 1
 O         0.241545        -0.340585         0.217935
 C        -0.668716         0.518165         0.832694
 C        -0.357557         1.787698         1.695762
 C        -1.804734         2.095875         1.266452
 C        -2.184698         3.422268         0.614084
 C        -1.331883         2.983502        -0.616014
 C        -1.464169         1.445145        -0.085261
 O        -2.711101         1.111161         1.837004
 C        -1.980645        -0.030556         1.605278
 H         0.767209        -0.756483         0.858832
 H        -0.148953         1.822691         2.699161
 H         0.250471         2.612541         1.232376
 H        -3.236632         3.219330         0.425762
 H        -2.026738         4.459064         0.943197
 H        -1.903118         3.069400        -1.526755
 H        -0.328739         3.210794        -0.696537
 H        -2.251269         1.035237        -0.698772
 H        -1.711659        -0.594423         2.473762
 H        -2.404962        -0.803192         1.010563
