19
Iteration:     8charge 0 multiplicity 1
 O         0.257538        -0.361588         0.271641
 C        -0.669955         0.551418         0.792013
 C        -0.386140         1.816878         1.693728
 C        -1.882541         2.120776         1.194813
 C        -2.150868         3.394807         0.546161
 C        -1.261962         2.924968        -0.613523
 C        -1.527836         1.478805        -0.146384
 O        -2.697878         1.132837         1.907193
 C        -1.946815        -0.050641         1.641760
 H         0.764440        -0.951505         0.977828
 H        -0.234539         1.685040         2.878423
 H         0.272698         2.378086         1.095959
 H        -3.244420         3.366777         0.298874
 H        -1.941070         4.266859         1.184179
 H        -1.885470         2.995105        -1.470804
 H        -0.224946         3.379944        -0.682178
 H        -2.457786         1.198093        -0.590070
 H        -1.515867        -0.615899         2.482415
 H        -2.589420        -0.615958         1.016314
