19
Iteration:  3432
 O         0.343633        -0.392237         0.392651
 C        -0.657932         0.486361         0.776370
 C        -0.433577         1.814372         1.616267
 C        -1.898180         2.088662         1.221700
 C        -2.253904         3.505150         0.584145
 C        -1.244657         3.002732        -0.562659
 C        -1.508440         1.452784        -0.154892
 O        -2.707697         1.121761         1.942655
 C        -1.884108        -0.076139         1.512411
 H        -0.197452        -1.296168         0.384149
 H        -0.316715         1.665132         2.716307
 H         0.237345         2.403561         1.086195
 H        -3.173265         3.621420         0.102500
 H        -2.077280         4.339571         1.245966
 H        -1.575439         3.336384        -1.537613
 H        -0.202953         3.480918        -0.372313
 H        -2.265183         1.049472        -0.808333
 H        -1.483386        -0.653150         2.415424
 H        -2.561239        -0.638107         0.847940
