19
Iteration:   219
 O         0.243547        -0.392034         0.267707
 C        -0.668541         0.592418         0.766410
 C        -0.355804         1.847383         1.751573
 C        -1.851443         2.089184         1.280693
 C        -2.144789         3.448937         0.630047
 C        -1.340727         2.894279        -0.709688
 C        -1.501953         1.500472        -0.103587
 O        -2.729621         1.116829         1.878837
 C        -1.883664        -0.070873         1.580523
 H         0.459326        -0.957586         1.026229
 H        -0.186934         1.636064         2.798375
 H         0.197383         2.779650         1.293706
 H        -3.153010         3.514990         0.225737
 H        -1.817998         4.391109         1.119008
 H        -1.991170         2.959518        -1.646497
 H        -0.400429         3.209352        -0.955253
 H        -2.276169         1.020227        -0.534463
 H        -1.607511        -0.805309         2.438729
 H        -2.497626        -0.696098         0.896410
