19
Iteration:  3908
 O         0.378360        -0.241626         0.385074
 C        -0.714051         0.517196         0.729097
 C        -0.425785         1.732809         1.594753
 C        -1.905163         2.068771         1.181975
 C        -2.097326         3.489145         0.629531
 C        -1.303331         2.995889        -0.586010
 C        -1.591794         1.394917        -0.146455
 O        -2.729378         1.120836         1.939911
 C        -1.898957        -0.083425         1.582838
 H         0.214402        -1.128898         0.637738
 H        -0.191261         1.656495         2.637557
 H         0.328142         2.247804         0.986804
 H        -3.152685         3.693126         0.174105
 H        -1.699590         4.312624         1.254765
 H        -1.822452         3.127498        -1.479687
 H        -0.226456         3.342572        -0.815414
 H        -2.428113         0.831299        -0.655662
 H        -1.598450        -0.520882         2.504453
 H        -2.583541        -0.738514         1.090099
