19
Iteration:   932
 O         0.221261        -0.366698         0.213226
 C        -0.652623         0.565344         0.763933
 C        -0.413739         1.790861         1.691156
 C        -1.910857         2.048557         1.235431
 C        -2.189478         3.393135         0.611286
 C        -1.286682         2.955105        -0.592070
 C        -1.515619         1.458267        -0.153529
 O        -2.673734         1.106116         1.939217
 C        -1.887692         0.001325         1.595899
 H         0.787306        -0.695071         0.859476
 H        -0.207316         1.646964         2.760337
 H         0.235328         2.595170         1.238231
 H        -3.264572         3.536016         0.301277
 H        -1.723812         4.319095         1.002036
 H        -1.591362         3.204935        -1.569783
 H        -0.284500         3.607404        -0.462349
 H        -2.264603         0.827221        -0.667244
 H        -1.582027        -0.440920         2.616350
 H        -2.603909        -0.718034         1.012692
