19
Iteration:  2088charge 0 multiplicity 1
 O         0.296980        -0.408341         0.373081
 C        -0.662017         0.558326         0.701321
 C        -0.389642         1.730457         1.702739
 C        -1.846847         2.069846         1.230447
 C        -2.163432         3.445838         0.631533
 C        -1.292920         3.027934        -0.585534
 C        -1.459671         1.488460        -0.154036
 O        -2.764278         1.133108         1.838103
 C        -2.010130        -0.113780         1.630389
 H         1.008913         0.079520        -0.163851
 H        -0.340486         1.349774         2.699829
 H         0.407567         2.460473         1.312164
 H        -3.320974         3.431588         0.525750
 H        -1.778333         4.389106         1.150767
 H        -1.646690         3.167935        -1.567430
 H        -0.340395         3.631854        -0.687521
 H        -2.249932         1.099880        -0.782806
 H        -1.782857        -0.604939         2.535576
 H        -2.602663        -0.824169         1.079515
