19
Iteration:  2301charge 0 multiplicity 1
 O         0.182931        -0.497218         0.394200
 C        -0.611106         0.635575         0.734616
 C        -0.465093         1.784681         1.743905
 C        -1.884182         2.099372         1.255184
 C        -2.133387         3.457102         0.682512
 C        -1.348317         2.951422        -0.588472
 C        -1.413333         1.513040        -0.176147
 O        -2.747024         1.105013         1.870460
 C        -1.868201        -0.069770         1.442286
 H         1.129561        -0.164422         0.216097
 H        -0.192578         1.472473         2.749320
 H         0.155558         2.674266         1.266572
 H        -3.266395         3.555523         0.627878
 H        -1.717848         4.326459         1.396700
 H        -1.768997         3.034753        -1.567162
 H        -0.370212         3.509417        -0.827180
 H        -2.216747         0.990628        -0.822540
 H        -1.618263        -0.616936         2.270820
 H        -2.447478        -0.702678         0.693031
