19
Iteration:   118charge 0 multiplicity 1
 O         0.272476        -0.416597         0.285621
 C        -0.646552         0.522713         0.704374
 C        -0.449210         1.774583         1.790654
 C        -1.759507         2.115177         1.276092
 C        -2.110936         3.406212         0.575153
 C        -1.458374         2.936513        -0.705695
 C        -1.430367         1.458026        -0.208039
 O        -2.740355         1.170437         1.907520
 C        -1.918040        -0.001090         1.614718
 H         0.946020        -0.407566         0.905578
 H        -0.434862         1.447067         2.992615
 H         0.167182         2.472596         1.426169
 H        -3.228729         3.478236         0.636315
 H        -1.759636         4.290865         1.120024
 H        -2.053016         3.044382        -1.554241
 H        -0.438222         3.473437        -0.849749
 H        -2.289330         1.026998        -0.684392
 H        -1.553389        -0.442731         2.630213
 H        -2.608378        -0.723960         1.071869
