19
Iteration:  3200
 O         0.313559        -0.325897         0.189760
 C        -0.688965         0.565315         0.824225
 C        -0.411943         1.783215         1.789725
 C        -1.867280         2.039275         1.191543
 C        -2.225765         3.499208         0.538334
 C        -1.240282         2.949803        -0.635273
 C        -1.533761         1.431768        -0.140958
 O        -2.709448         1.165854         1.926200
 C        -1.925841        -0.091833         1.618500
 H         0.450926        -1.013812         0.998119
 H        -0.302435         1.506934         2.815176
 H         0.386427         2.424541         1.281975
 H        -3.252921         3.375143         0.152524
 H        -2.044416         4.274624         1.329895
 H        -1.519517         3.214940        -1.815870
 H        -0.258116         3.405475        -0.576701
 H        -2.298282         0.885613        -0.627579
 H        -1.479481        -0.614555         2.604609
 H        -2.637181        -0.744909         1.102963
