19
Iteration:  1281charge 0 multiplicity 1
 O         0.344392        -0.314823         0.317296
 C        -0.697037         0.506307         0.766589
 C        -0.397956         1.728079         1.662551
 C        -1.924427         2.077007         1.172529
 C        -2.164434         3.466328         0.657309
 C        -1.317320         2.943422        -0.643277
 C        -1.546488         1.463768        -0.154495
 O        -2.701146         1.201388         1.957922
 C        -1.908429        -0.106949         1.514551
 H         0.542892        -0.679654         1.140386
 H        -0.329311         1.513015         2.828920
 H         0.394995         2.358338         1.311514
 H        -3.244606         3.723011         0.411300
 H        -1.696397         4.210572         1.294473
 H        -1.833761         3.079754        -1.555999
 H        -0.262678         3.316270        -0.810580
 H        -2.367094         1.058811        -0.783038
 H        -1.622783        -0.593175         2.470036
 H        -2.415652        -0.835589         0.936556
