19
Iteration:  3370charge 0 multiplicity 1
 O         0.394750        -0.272099         0.399168
 C        -0.628853         0.525324         0.784812
 C        -0.416538         1.702597         1.632706
 C        -1.887201         2.096941         1.193367
 C        -2.137132         3.474172         0.614578
 C        -1.275061         2.999010        -0.658267
 C        -1.558207         1.448592        -0.159690
 O        -2.756543         1.098333         1.893786
 C        -1.991543        -0.092729         1.633497
 H        -0.015149        -1.088847        -0.146093
 H        -0.135648         1.453914         2.676806
 H         0.322057         2.571598         1.450361
 H        -3.227382         3.718811         0.184714
 H        -1.673838         4.241474         1.302131
 H        -1.613174         3.274747        -1.642014
 H        -0.232279         3.376268        -0.530224
 H        -2.520665         1.015673        -0.667450
 H        -1.725967        -0.598417         2.543812
 H        -2.665850        -0.761199         1.012524
