19
Iteration:  3863charge 0 multiplicity 1
 O         0.285977        -0.395975         0.394395
 C        -0.693875         0.524536         0.857610
 C        -0.423733         1.759150         1.679739
 C        -1.857074         2.109458         1.152542
 C        -2.231994         3.508765         0.568256
 C        -1.340513         2.988818        -0.643451
 C        -1.521468         1.506529        -0.178114
 O        -2.630454         1.089648         1.961198
 C        -1.839604        -0.061564         1.574047
 H        -0.062447        -1.072189        -0.170262
 H        -0.385118         1.595908         2.712627
 H         0.378585         2.400682         1.281725
 H        -3.394177         3.413012         0.216338
 H        -1.944287         4.415100         1.071868
 H        -1.743437         3.239617        -1.595870
 H        -0.285397         3.399177        -0.588486
 H        -2.370031         1.128363        -0.796515
 H        -1.427293        -0.585574         2.452489
 H        -2.365624        -0.792034         0.968283
