19
Iteration:  2070charge 0 multiplicity 1
 O         0.338240        -0.419832         0.442030
 C        -0.758945         0.502943         0.763295
 C        -0.495908         1.697719         1.635053
 C        -1.944704         2.072762         1.161066
 C        -2.174103         3.503627         0.645691
 C        -1.203518         3.064963        -0.544047
 C        -1.488379         1.521340        -0.245389
 O        -2.689735         1.088843         1.981540
 C        -1.915470        -0.083492         1.533988
 H         0.684128        -0.028357        -0.446272
 H        -0.279845         1.680186         2.726998
 H         0.181650         2.299103         1.125733
 H        -3.073904         3.812648         0.134251
 H        -1.973733         4.285169         1.277859
 H        -1.726554         3.312973        -1.552684
 H        -0.181549         3.263104        -0.554203
 H        -2.196648         0.937932        -0.912975
 H        -1.431076        -0.539067         2.431735
 H        -2.623198        -0.824896         0.969316
