19
Iteration:  4657charge 0 multiplicity 1
 O         0.204403        -0.427097         0.317974
 C        -0.630249         0.529186         0.745684
 C        -0.384547         1.841253         1.635026
 C        -1.857335         2.086261         1.289038
 C        -2.249130         3.376247         0.533136
 C        -1.358792         2.973773        -0.663023
 C        -1.491347         1.429760        -0.101667
 O        -2.679770         1.201057         2.009867
 C        -1.847966         0.000861         1.555926
 H         0.918685        -0.792600         0.949039
 H        -0.031829         1.776719         2.682919
 H         0.276733         2.407870         0.999758
 H        -3.212674         3.451319         0.108848
 H        -1.992907         4.391555         0.879737
 H        -1.891045         2.931695        -1.614702
 H        -0.224662         3.260052        -0.734344
 H        -2.396357         0.862824        -0.563824
 H        -1.485515        -0.478590         2.433581
 H        -2.541280        -0.771261         1.048453
