19
Iteration:  3514
 O         0.241666        -0.343555         0.426569
 C        -0.706036         0.547889         0.779564
 C        -0.491387         1.779404         1.651565
 C        -1.888053         2.062184         1.190176
 C        -2.092138         3.495786         0.623585
 C        -1.246741         2.892964        -0.608276
 C        -1.589371         1.455074        -0.176884
 O        -2.716140         1.089870         1.951907
 C        -1.825726        -0.071599         1.546813
 H         0.856882         0.068380        -0.301754
 H        -0.388252         1.679825         2.720255
 H         0.256809         2.527559         1.445346
 H        -3.183886         3.652313         0.350223
 H        -1.608194         4.365057         1.124976
 H        -1.819767         3.205451        -1.523094
 H        -0.330768         3.327008        -0.732031
 H        -2.200346         0.954399        -1.028702
 H        -1.536980        -0.693362         2.306537
 H        -2.401159        -0.706884         0.875914
