19
Iteration:  4018charge 0 multiplicity 1
 O         0.246897        -0.399630         0.506333
 C        -0.718900         0.596554         0.732296
 C        -0.402163         1.831998         1.596206
 C        -1.911834         2.078828         1.218279
 C        -2.157040         3.432243         0.635595
 C        -1.339619         3.013447        -0.660377
 C        -1.539093         1.372578        -0.225342
 O        -2.639157         1.095240         2.010366
 C        -1.849783        -0.048363         1.514981
 H         0.506952        -0.409099        -0.435616
 H        -0.174026         1.717482         2.658713
 H         0.374633         2.496436         1.333297
 H        -3.232797         3.641594         0.426935
 H        -1.800029         4.311638         1.212393
 H        -1.704584         3.229349        -1.594087
 H        -0.231637         3.275885        -0.727994
 H        -2.314917         0.878568        -0.890160
 H        -1.590413        -0.560532         2.495831
 H        -2.552737        -0.774003         0.886807
