19
Iteration:  2596charge 0 multiplicity 1
 O         0.227922        -0.455872         0.446582
 C        -0.662033         0.544352         0.746768
 C        -0.403543         1.783514         1.684033
 C        -1.803118         2.061321         1.194319
 C        -2.193314         3.432934         0.716021
 C        -1.361615         3.006359        -0.584516
 C        -1.475903         1.510380        -0.207635
 O        -2.739425         1.161965         1.794817
 C        -1.879125        -0.061624         1.508670
 H         1.116323        -0.098999         0.328090
 H        -0.161118         1.532613         2.788421
 H         0.270511         2.493436         1.320779
 H        -3.177250         3.417111         0.423885
 H        -1.862162         4.246457         1.456776
 H        -1.927333         3.098647        -1.534702
 H        -0.293366         3.314343        -0.373035
 H        -2.184795         0.839816        -0.850372
 H        -1.769124        -0.624193         2.380606
 H        -2.504084        -0.577767         0.863995
