19
Iteration:  3094
 O         0.327530        -0.338952         0.318013
 C        -0.689530         0.525952         0.759595
 C        -0.425618         1.769151         1.733832
 C        -1.872317         2.006313         1.238759
 C        -2.106362         3.491871         0.612363
 C        -1.341479         2.911729        -0.641219
 C        -1.572689         1.424849        -0.161590
 O        -2.755473         1.174878         1.911798
 C        -1.920300        -0.060679         1.497511
 H         1.186724        -0.193131         0.851902
 H        -0.304255         1.653325         2.832695
 H         0.353495         2.637750         1.484570
 H        -3.218705         3.857097         0.487170
 H        -1.679846         4.389052         1.168435
 H        -1.707695         3.108635        -1.596975
 H        -0.211291         3.130386        -0.544749
 H        -2.272662         0.753541        -0.837968
 H        -1.601864        -0.400409         2.473457
 H        -2.579505        -0.876508         0.889196
