19
Iteration:  2322
 O         0.238553        -0.440678         0.390270
 C        -0.672037         0.560238         0.848828
 C        -0.371598         1.807905         1.758712
 C        -1.913322         2.093875         1.194283
 C        -2.148303         3.502053         0.665503
 C        -1.324875         3.007354        -0.597667
 C        -1.497761         1.488414        -0.123058
 O        -2.679139         1.050045         1.827940
 C        -1.939513        -0.116973         1.472995
 H         0.621858         0.072853        -0.253562
 H        -0.340151         1.619366         2.808063
 H         0.452476         2.427485         1.246417
 H        -3.181070         3.705671         0.232515
 H        -1.673763         4.392689         1.260380
 H        -1.733714         3.305593        -1.536322
 H        -0.275346         3.342511        -0.710788
 H        -2.320729         0.985304        -0.759520
 H        -1.644996        -0.669725         2.302819
 H        -2.464999        -0.786963         0.652873
