19
Iteration:  4497
 O         0.274883        -0.408727         0.317446
 C        -0.654634         0.542909         0.733735
 C        -0.425633         1.719641         1.552355
 C        -1.937660         2.102675         1.185662
 C        -2.183745         3.452416         0.517794
 C        -1.324029         2.943340        -0.621142
 C        -1.547262         1.417867        -0.161753
 O        -2.676977         1.215177         2.018846
 C        -1.841138        -0.029434         1.707304
 H         1.030781        -0.417944         0.848221
 H        -0.193345         1.497567         2.633658
 H         0.184838         2.532279         1.125205
 H        -3.270382         3.477521         0.292358
 H        -1.923217         4.254713         1.098386
 H        -1.925292         3.309328        -1.535007
 H        -0.339401         3.341843        -0.734324
 H        -2.384284         0.943305        -0.626227
 H        -1.389423        -0.545879         2.682890
 H        -2.405324        -0.821115         1.225412
