19
Iteration:  1275
 O         0.340505        -0.339172         0.334080
 C        -0.756065         0.539641         0.767029
 C        -0.428381         1.761928         1.657647
 C        -1.900059         2.098159         1.202004
 C        -2.169158         3.505549         0.625329
 C        -1.277446         2.949853        -0.665093
 C        -1.546881         1.478337        -0.166801
 O        -2.696768         1.097758         1.979215
 C        -1.898263        -0.106055         1.533316
 H         0.696749        -0.838367         1.137210
 H        -0.066599         1.578316         2.608415
 H         0.394138         2.363885         1.168435
 H        -3.201544         3.798780         0.418986
 H        -1.773318         4.315337         1.341373
 H        -1.894390         3.098455        -1.654973
 H        -0.264964         3.300083        -0.612929
 H        -2.279002         1.109327        -0.878199
 H        -1.626397        -0.531997         2.494689
 H        -2.586605        -0.791860         0.882191
