19
Iteration:  2628
 O         0.312017        -0.388875         0.367479
 C        -0.719650         0.512470         0.743425
 C        -0.472323         1.703683         1.766233
 C        -1.910861         2.146107         1.211446
 C        -2.171264         3.466329         0.558688
 C        -1.269787         3.011916        -0.606590
 C        -1.456688         1.523813        -0.097911
 O        -2.712565         1.110557         1.920080
 C        -1.894986        -0.135458         1.550476
 H         0.615525        -0.091124        -0.591462
 H        -0.402644         1.432806         2.900714
 H         0.278106         2.378060         1.485515
 H        -3.145082         3.547320         0.223152
 H        -2.074483         4.468908         1.106093
 H        -1.547973         3.220037        -1.711503
 H        -0.173539         3.273406        -0.719096
 H        -2.263955         1.086550        -0.803478
 H        -1.638471        -0.701045         2.500312
 H        -2.508027        -0.644435         0.869886
