19
Iteration:  3658charge 0 multiplicity 1
 O         0.344675        -0.379276         0.390625
 C        -0.705652         0.532214         0.783376
 C        -0.470160         1.807251         1.618960
 C        -1.858796         2.116448         1.157320
 C        -2.157780         3.457355         0.639968
 C        -1.322151         2.898810        -0.643356
 C        -1.541081         1.444391        -0.197780
 O        -2.709788         1.155523         1.957209
 C        -1.870424        -0.087485         1.660198
 H         0.374917        -0.344942        -0.606485
 H        -0.487303         1.615227         2.700460
 H         0.392790         2.377546         1.263864
 H        -3.147694         3.713629         0.352982
 H        -1.744706         4.347751         1.167053
 H        -1.850102         3.260540        -1.481854
 H        -0.292125         3.280786        -0.572372
 H        -2.297891         0.994726        -0.873813
 H        -1.391592        -0.578070         2.508255
 H        -2.616045        -0.849363         1.121273
