19
Iteration:  4281
 O         0.251815        -0.490966         0.411639
 C        -0.686733         0.617446         0.732706
 C        -0.415547         1.848437         1.672245
 C        -1.938452         2.091339         1.230356
 C        -2.168941         3.441165         0.578081
 C        -1.338444         2.977975        -0.777546
 C        -1.563278         1.501355        -0.166186
 O        -2.655030         1.110820         2.029341
 C        -1.837500        -0.090143         1.637191
 H         1.041501        -0.156024        -0.137850
 H        -0.278968         1.643945         2.720182
 H         0.333725         2.495886         1.195738
 H        -3.302446         3.645054         0.308002
 H        -1.741830         4.348868         1.036693
 H        -1.769263         2.898936        -1.802488
 H        -0.326403         3.296918        -0.810375
 H        -2.297224         0.971623        -0.712874
 H        -1.454312        -0.518654         2.564545
 H        -2.387421        -0.930970         1.071943
