19
Iteration:  4417charge 0 multiplicity 1
 O         0.299054        -0.363420         0.302033
 C        -0.724783         0.495690         0.778634
 C        -0.408504         1.747883         1.545896
 C        -1.871866         2.083286         1.152467
 C        -2.204409         3.383281         0.591794
 C        -1.370440         2.986088        -0.632772
 C        -1.568215         1.428107        -0.185973
 O        -2.596212         1.226517         1.927918
 C        -1.887563        -0.038277         1.780034
 H         0.801661        -0.678882         1.022417
 H        -0.438614         1.751867         2.676760
 H         0.371876         2.463377         1.226462
 H        -3.247052         3.400418         0.412609
 H        -1.935789         4.428543         1.110268
 H        -1.907859         3.172809        -1.523548
 H        -0.261837         3.279302        -0.576694
 H        -2.243005         0.774186        -0.856345
 H        -1.332979        -0.455083         2.682110
 H        -2.637188        -0.709169         1.140765
