19
Iteration:  3476
 O         0.362600        -0.376846         0.414969
 C        -0.689797         0.509476         0.752827
 C        -0.423807         1.731780         1.688867
 C        -1.888766         2.131539         1.193657
 C        -2.189281         3.456262         0.617934
 C        -1.290863         3.013723        -0.597664
 C        -1.484350         1.427196        -0.153552
 O        -2.743433         1.163748         1.904965
 C        -1.898541        -0.068737         1.558112
 H         0.191668        -0.645425        -0.588786
 H        -0.383733         1.437347         2.775451
 H         0.285058         2.387401         1.178044
 H        -3.227608         3.485613         0.456785
 H        -2.042714         4.450885         1.049529
 H        -1.830415         3.073236        -1.521549
 H        -0.151126         3.342450        -0.540871
 H        -2.298942         0.981976        -0.740964
 H        -1.609585        -0.512590         2.616531
 H        -2.465396        -0.736534         0.843595
