19
Iteration:   809charge 0 multiplicity 1
 O         0.214044        -0.369820         0.200895
 C        -0.603902         0.549016         0.781478
 C        -0.443205         1.745990         1.786666
 C        -1.796821         2.085968         1.214343
 C        -2.219625         3.412557         0.572232
 C        -1.354321         2.965146        -0.667538
 C        -1.502457         1.489423        -0.109322
 O        -2.673026         1.181182         1.916988
 C        -1.865492        -0.098542         1.599542
 H         0.805341        -0.634882         0.901362
 H        -0.581838         1.517974         2.875716
 H         0.372944         2.372580         1.651401
 H        -3.337738         3.511515         0.397638
 H        -1.972686         4.316787         1.114313
 H        -1.774310         3.078358        -1.659977
 H        -0.461739         3.561312        -0.829023
 H        -2.354202         1.069773        -0.630333
 H        -1.466110        -0.534411         2.598777
 H        -2.470265        -0.767067         0.918340
