19
Iteration:  4936
 O         0.254050        -0.438031         0.306262
 C        -0.703209         0.527048         0.825879
 C        -0.329257         1.739024         1.582494
 C        -1.790910         2.058144         1.222616
 C        -2.310087         3.373275         0.581219
 C        -1.358995         2.942396        -0.670815
 C        -1.508184         1.470990        -0.131133
 O        -2.648188         1.244776         1.913942
 C        -1.877647         0.045572         1.653573
 H         0.602995        -0.909687         1.150843
 H        -0.084890         1.714183         2.653004
 H         0.230419         2.521021         1.062765
 H        -3.361962         3.363443         0.198886
 H        -2.127974         4.446437         1.026258
 H        -1.821552         3.167282        -1.609543
 H        -0.396282         3.484519        -0.727310
 H        -2.234428         0.894030        -0.611924
 H        -1.537515        -0.445223         2.654745
 H        -2.436901        -0.752889         1.269588
