19
Iteration:  1094
 O         0.218232        -0.412432         0.207460
 C        -0.687112         0.602969         0.745037
 C        -0.434889         1.796622         1.815533
 C        -1.870078         2.092195         1.246833
 C        -2.198143         3.414965         0.527825
 C        -1.334589         2.960429        -0.590456
 C        -1.479574         1.461427        -0.165732
 O        -2.641002         1.156467         1.986996
 C        -1.889358        -0.063878         1.544444
 H         0.688547        -0.739769         0.926073
 H        -0.304966         1.439648         2.859127
 H         0.364623         2.535250         1.403982
 H        -3.275209         3.440072         0.053270
 H        -1.930947         4.333543         1.118331
 H        -1.692117         3.108269        -1.536852
 H        -0.217824         3.406032        -0.675591
 H        -2.169111         0.995108        -0.905302
 H        -1.428277        -0.567224         2.442322
 H        -2.564155        -0.762694         1.079835
