19
Iteration:   503charge 0 multiplicity 1
 O         0.274429        -0.364643         0.260786
 C        -0.641329         0.581845         0.784362
 C        -0.332522         1.793674         1.711910
 C        -1.918950         2.132387         1.288730
 C        -2.148169         3.447770         0.610172
 C        -1.349130         2.921781        -0.646972
 C        -1.505324         1.442925        -0.103310
 O        -2.755829         1.124090         1.909120
 C        -1.923993        -0.103128         1.545290
 H         0.721400        -0.682897         0.989149
 H        -0.061829         1.738357         2.719415
 H         0.381348         2.605777         1.166188
 H        -3.092594         3.574198         0.114480
 H        -1.825243         4.423678         1.056047
 H        -1.917711         3.227982        -1.618009
 H        -0.313499         3.261902        -0.794912
 H        -2.321375         0.840885        -0.689332
 H        -1.675467        -0.572057         2.392405
 H        -2.379483        -0.908503         1.024703
