19
Iteration:  3979
 O         0.343590        -0.375988         0.358618
 C        -0.677823         0.447949         0.837518
 C        -0.340489         1.783238         1.614542
 C        -1.824062         2.118923         1.170497
 C        -2.286019         3.405467         0.597702
 C        -1.319219         3.064954        -0.628794
 C        -1.524753         1.413016        -0.132190
 O        -2.678431         1.175153         1.893695
 C        -1.942319        -0.052137         1.629116
 H        -0.093471        -1.055915        -0.145809
 H        -0.291944         1.555522         2.736331
 H         0.468605         2.449687         1.194918
 H        -3.292991         3.283488         0.251720
 H        -2.126002         4.330936         1.273710
 H        -1.594781         3.699286        -1.641038
 H        -0.300214         3.412491        -0.454380
 H        -2.403992         0.888470        -0.574751
 H        -1.520220        -0.492291         2.557077
 H        -2.520615        -0.765677         1.067220
