19
Iteration:  1519charge 0 multiplicity 1
 O         0.214646        -0.483141         0.328992
 C        -0.705003         0.532790         0.798573
 C        -0.400808         1.840556         1.730470
 C        -1.905969         2.070702         1.173209
 C        -2.153240         3.520333         0.617516
 C        -1.381668         3.018747        -0.643199
 C        -1.452230         1.465829        -0.125046
 O        -2.621977         1.081187         1.948541
 C        -1.935565        -0.074600         1.534367
 H         1.098863        -0.010523         0.021626
 H        -0.412999         1.454942         2.749310
 H         0.251152         2.615172         1.406437
 H        -3.221804         3.772729         0.339636
 H        -1.592884         4.301051         1.231711
 H        -1.742027         3.101684        -1.666493
 H        -0.329783         3.478097        -0.703365
 H        -2.251662         0.905380        -0.737334
 H        -1.643320        -0.651061         2.403560
 H        -2.444574        -0.768240         0.849381
