19
Iteration:  1731
 O         0.343151        -0.305736         0.366026
 C        -0.712077         0.500971         0.700678
 C        -0.446905         1.691849         1.736705
 C        -1.842053         2.048562         1.202291
 C        -2.189696         3.435852         0.705490
 C        -1.287616         3.001121        -0.573198
 C        -1.476816         1.489471        -0.198928
 O        -2.739180         1.194652         1.870600
 C        -1.915927        -0.048559         1.506280
 H         0.170163        -1.215152        -0.130630
 H        -0.509750         1.329394         2.645251
 H         0.437393         2.326905         1.393863
 H        -3.251864         3.361341         0.326234
 H        -1.811516         4.197755         1.340976
 H        -1.428184         3.323384        -1.552443
 H        -0.281917         3.433423        -0.301711
 H        -2.361683         1.031603        -0.683826
 H        -1.607646        -0.469750         2.491289
 H        -2.578826        -0.697083         1.093108
