19
Iteration:  2145
 O         0.257140        -0.463007         0.414975
 C        -0.706694         0.546014         0.754066
 C        -0.477998         1.752280         1.672082
 C        -1.953153         2.074715         1.138336
 C        -2.150500         3.466885         0.630835
 C        -1.203119         3.122443        -0.604748
 C        -1.529017         1.525566        -0.251091
 O        -2.657704         1.038351         2.017881
 C        -1.912876        -0.122123         1.532597
 H         0.995301         0.069351         0.223494
 H        -0.101427         1.709593         2.725460
 H         0.214110         2.353529         1.171485
 H        -3.273134         3.682263         0.344494
 H        -1.895039         4.346972         1.142398
 H        -1.605436         3.437668        -1.575927
 H        -0.259152         3.419030        -0.337772
 H        -2.191671         0.970082        -0.957525
 H        -1.675894        -0.616094         2.342236
 H        -2.617537        -0.710588         0.898433
