19
Iteration:    26
 O         0.254159        -0.338715         0.166727
 C        -0.657025         0.490360         0.859250
 C        -0.311086         1.831831         1.729735
 C        -1.826276         2.141502         1.320348
 C        -2.209967         3.407891         0.559880
 C        -1.291181         2.930934        -0.685378
 C        -1.438289         1.449127        -0.028254
 O        -2.776179         1.170204         1.843131
 C        -1.977472        -0.067619         1.639620
 H         0.627995        -1.043444         0.856254
 H        -0.106433         1.775054         2.752027
 H         0.311785         2.544450         1.015240
 H        -3.247293         3.267528         0.251434
 H        -2.103838         4.441049         0.944854
 H        -1.807066         2.994155        -1.726333
 H        -0.252331         3.282355        -0.617663
 H        -2.264238         0.811157        -0.629711
 H        -1.784746        -0.433170         2.682526
 H        -2.501895        -0.877429         0.928966
