19
Iteration:  3013
 O         0.243433        -0.457436         0.464980
 C        -0.669663         0.535703         0.800745
 C        -0.385059         1.796657         1.693406
 C        -1.826114         2.054109         1.226149
 C        -2.264828         3.450141         0.625633
 C        -1.303372         3.060702        -0.622760
 C        -1.456509         1.554395        -0.183535
 O        -2.695223         1.117560         1.850712
 C        -1.921437        -0.124891         1.542925
 H         0.576919        -0.382097        -0.538103
 H        -0.169361         1.558076         2.722227
 H         0.341281         2.378221         1.240803
 H        -3.316095         3.321952         0.360050
 H        -1.872277         4.476662         1.070408
 H        -1.755341         3.403438        -1.607707
 H        -0.317104         3.441706        -0.572594
 H        -2.211518         1.053200        -0.660991
 H        -1.676023        -0.755772         2.474933
 H        -2.464819        -0.715014         0.839386
