19
Iteration:   770
 O         0.309140        -0.285683         0.334457
 C        -0.734795         0.533920         0.712044
 C        -0.387415         1.800410         1.524673
 C        -1.929513         2.060348         1.189866
 C        -2.169636         3.417441         0.629605
 C        -1.231393         2.998465        -0.592406
 C        -1.571162         1.457365        -0.102751
 O        -2.708593         1.128737         2.012234
 C        -1.907989        -0.166512         1.580507
 H         0.666370        -0.811559         1.045889
 H        -0.175252         1.751675         2.662156
 H         0.283027         2.577588         1.077095
 H        -3.237607         3.602323         0.382989
 H        -1.745403         4.257117         1.223669
 H        -1.607916         3.122829        -1.666592
 H        -0.087318         3.354780        -0.682892
 H        -2.384008         1.081360        -0.940746
 H        -1.601916        -0.638175         2.532546
 H        -2.554815        -0.735662         0.882704
