19
Iteration:  3934
 O         0.334804        -0.322655         0.335921
 C        -0.678229         0.572223         0.738887
 C        -0.491071         1.772697         1.732208
 C        -1.889224         2.099623         1.128182
 C        -2.140613         3.527345         0.604217
 C        -1.286240         2.949919        -0.682031
 C        -1.603828         1.475714        -0.204855
 O        -2.664897         1.047354         2.009339
 C        -1.848556        -0.071497         1.584660
 H        -0.029746        -1.191375         0.579063
 H        -0.542008         1.688319         2.890943
 H         0.283834         2.409189         1.291338
 H        -3.199180         3.635603         0.423365
 H        -1.691377         4.400018         1.256543
 H        -1.612976         3.113704        -1.832420
 H        -0.194356         3.128976        -0.519011
 H        -2.496140         0.898113        -0.586260
 H        -1.506803        -0.573580         2.490589
 H        -2.487271        -0.744201         1.025238
