19
Iteration:  1643
 O         0.299289        -0.384239         0.294956
 C        -0.751994         0.473735         0.718987
 C        -0.436534         1.683496         1.681234
 C        -1.974192         2.067316         1.228280
 C        -2.148913         3.427446         0.675679
 C        -1.247182         3.003223        -0.568416
 C        -1.459063         1.544813        -0.261340
 O        -2.680035         1.129915         1.972064
 C        -1.948937        -0.068725         1.546642
 H         1.184625         0.045871         0.692577
 H        -0.348388         1.541952         2.735574
 H         0.317623         2.396948         1.185439
 H        -3.271224         3.609006         0.301616
 H        -1.939204         4.318965         1.245843
 H        -1.474016         3.263202        -1.621155
 H        -0.253146         3.473602        -0.379167
 H        -2.310965         1.180241        -0.912699
 H        -1.606480        -0.358571         2.586512
 H        -2.624609        -0.719126         0.999274
