19
Iteration:  1144charge 0 multiplicity 1
 O         0.299666        -0.349431         0.302148
 C        -0.734951         0.546870         0.745398
 C        -0.453368         1.804369         1.562243
 C        -1.892218         2.084230         1.179892
 C        -2.147084         3.522185         0.675333
 C        -1.274753         2.972056        -0.588948
 C        -1.484388         1.418615        -0.215975
 O        -2.689626         1.088133         1.992366
 C        -1.928504        -0.104960         1.624513
 H         0.862499        -0.696440         1.076789
 H        -0.429385         1.662795         2.626341
 H         0.241784         2.439061         1.120861
 H        -3.142386         3.626042         0.429640
 H        -1.688711         4.337240         1.191195
 H        -1.730230         3.154295        -1.640374
 H        -0.359337         3.384400        -0.726971
 H        -2.252059         1.087268        -0.907194
 H        -1.602263        -0.663782         2.512652
 H        -2.693689        -0.803423         1.174526
