19
Iteration:    45
 O         0.222669        -0.350740         0.234078
 C        -0.679046         0.612679         0.794904
 C        -0.396596         1.734365         1.777708
 C        -1.862139         2.059397         1.164320
 C        -2.253489         3.433174         0.511710
 C        -1.298520         2.872505        -0.577696
 C        -1.493259         1.436235        -0.188606
 O        -2.674288         1.187918         1.948826
 C        -1.860379         0.014550         1.611418
 H         0.555126        -0.949202         0.983325
 H        -0.367584         1.427509         2.795161
 H         0.490608         2.390165         1.547542
 H        -3.295132         3.601463         0.232654
 H        -1.849862         4.308474         1.028663
 H        -1.571230         3.039635        -1.642974
 H        -0.347580         3.311460        -0.484933
 H        -2.312340         0.927917        -0.658217
 H        -1.516213        -0.485515         2.491100
 H        -2.456868        -0.648797         1.010470
