19
Iteration:  3800charge 0 multiplicity 1
 O         0.288272        -0.373545         0.369883
 C        -0.656400         0.495964         0.749111
 C        -0.436827         1.824186         1.701760
 C        -1.859412         2.064657         1.143932
 C        -2.162425         3.436792         0.617264
 C        -1.328492         2.927292        -0.695958
 C        -1.513339         1.486145        -0.162019
 O        -2.670564         1.144563         1.999626
 C        -1.963456        -0.078002         1.608463
 H         0.786750         0.016007        -0.385688
 H        -0.250125         1.556290         2.721779
 H         0.303982         2.587614         1.329684
 H        -3.139840         3.630281         0.322118
 H        -1.847392         4.321586         1.182558
 H        -1.929244         2.945936        -1.534826
 H        -0.302740         3.385253        -0.720967
 H        -2.325598         0.896507        -0.696516
 H        -1.554349        -0.438001         2.504870
 H        -2.596345        -0.858245         1.181180
