19
Iteration:  3119
 O         0.306095        -0.337963         0.374139
 C        -0.692130         0.532623         0.771655
 C        -0.444766         1.743427         1.624219
 C        -1.867686         2.020289         1.220924
 C        -2.130237         3.469814         0.660066
 C        -1.341718         2.966130        -0.663441
 C        -1.483388         1.493385        -0.195112
 O        -2.688640         1.145282         1.911856
 C        -1.964629        -0.060306         1.573042
 H         1.089372        -0.479302         1.102830
 H        -0.371422         1.489448         2.731853
 H         0.355118         2.439880         1.372657
 H        -3.128473         3.678936         0.414257
 H        -1.903641         4.268794         1.292477
 H        -1.963188         3.006534        -1.578634
 H        -0.307718         3.422765        -0.935640
 H        -2.224214         0.943678        -0.866979
 H        -1.762745        -0.620527         2.532962
 H        -2.583888        -0.782446         0.820889
