19
Iteration:   400charge 0 multiplicity 1
 O         0.220210        -0.350614         0.230633
 C        -0.654341         0.496746         0.803251
 C        -0.447781         1.793125         1.703196
 C        -1.945427         2.119129         1.256094
 C        -2.190361         3.452112         0.503099
 C        -1.330058         3.019735        -0.643221
 C        -1.436962         1.433779        -0.130798
 O        -2.667248         1.166545         2.008298
 C        -1.819560        -0.120758         1.566114
 H         0.666075        -1.050402         0.884869
 H        -0.380913         1.454153         2.842244
 H         0.240346         2.534908         1.480215
 H        -3.264537         3.640122         0.251778
 H        -1.843875         4.325780         1.028008
 H        -1.857713         2.947486        -1.528433
 H        -0.238599         3.268755        -0.622799
 H        -2.183822         0.903896        -0.867600
 H        -1.549615        -0.529537         2.493168
 H        -2.556805        -0.603764         0.881256
