19
Iteration:  3795charge 0 multiplicity 1
 O         0.281289        -0.392121         0.373328
 C        -0.672210         0.526430         0.716258
 C        -0.437153         1.818680         1.695782
 C        -1.878296         2.047233         1.231468
 C        -2.101325         3.419974         0.575036
 C        -1.347346         2.953983        -0.689421
 C        -1.514237         1.479560        -0.161518
 O        -2.689718         1.115123         1.995587
 C        -1.921857        -0.048397         1.614591
 H         0.792266         0.121678        -0.269767
 H        -0.334001         1.725028         2.817692
 H         0.278348         2.524971         1.335511
 H        -3.239314         3.586071         0.218472
 H        -1.718453         4.329354         1.063817
 H        -1.991099         3.010294        -1.651297
 H        -0.356538         3.338362        -0.780519
 H        -2.335383         1.058706        -0.726760
 H        -1.549582        -0.565690         2.578224
 H        -2.557366        -0.805105         1.094203
