19
Iteration:  3354
 O         0.360760        -0.334079         0.418631
 C        -0.790628         0.567065         0.743277
 C        -0.428790         1.797778         1.671073
 C        -1.894817         2.014809         1.218025
 C        -2.134568         3.453252         0.605469
 C        -1.249521         2.928996        -0.563555
 C        -1.517627         1.474605        -0.188193
 O        -2.732545         1.145775         1.930038
 C        -1.918174        -0.059689         1.541121
 H         0.166722        -0.733025        -0.450419
 H        -0.272710         1.812335         2.761406
 H         0.385388         2.258978         1.184375
 H        -3.134780         3.518038         0.420695
 H        -1.961553         4.390349         1.090808
 H        -1.678993         3.107708        -1.597147
 H        -0.171268         3.192163        -0.529573
 H        -2.167291         1.032152        -0.887144
 H        -1.565896        -0.593717         2.468429
 H        -2.457168        -0.823174         1.003010
