19
Iteration:  3067
 O         0.219853        -0.330140         0.303404
 C        -0.769301         0.505092         0.780492
 C        -0.429986         1.786827         1.726855
 C        -1.886080         2.029936         1.188075
 C        -2.139276         3.470369         0.525742
 C        -1.160153         3.011655        -0.598624
 C        -1.579444         1.462196        -0.157669
 O        -2.721005         1.036615         1.959271
 C        -1.881992        -0.079946         1.575567
 H         1.120206         0.045344         0.649022
 H        -0.220475         1.764521         2.792273
 H         0.244466         2.453070         1.339149
 H        -3.131627         3.593983         0.131260
 H        -1.890210         4.480845         1.008016
 H        -1.702275         3.268600        -1.577918
 H        -0.138982         3.256774        -0.516540
 H        -2.331135         1.029970        -0.698801
 H        -1.404844        -0.421228         2.526115
 H        -2.396545        -0.750808         1.019340
