19
Iteration:  1591
 O         0.284121        -0.339252         0.263785
 C        -0.620025         0.560510         0.720849
 C        -0.429639         1.746598         1.756726
 C        -1.885809         2.111658         1.250418
 C        -2.192717         3.433895         0.633686
 C        -1.235351         3.012982        -0.596099
 C        -1.494183         1.456425        -0.174359
 O        -2.701082         1.106434         1.930283
 C        -1.932024        -0.060006         1.555083
 H        -0.095624        -1.277551         0.314628
 H        -0.493577         1.479310         2.757983
 H         0.282922         2.603637         1.408851
 H        -3.145216         3.468073         0.266967
 H        -1.898687         4.310367         1.195716
 H        -1.809714         3.154104        -1.462257
 H        -0.288761         3.485243        -0.823070
 H        -2.217130         0.984361        -0.750797
 H        -1.588322        -0.523886         2.546654
 H        -2.606752        -0.831040         1.044793
