19
Iteration:  4802charge 0 multiplicity 1
 O         0.220424        -0.428042         0.331829
 C        -0.670693         0.562736         0.757472
 C        -0.409017         1.907248         1.638809
 C        -1.820143         2.061190         1.175952
 C        -2.289356         3.436499         0.553982
 C        -1.293885         2.921012        -0.645489
 C        -1.601335         1.416542        -0.137652
 O        -2.521515         1.155563         2.039266
 C        -1.913546        -0.023755         1.560486
 H         0.580849        -0.765179         1.168135
 H        -0.054145         1.903636         2.654098
 H         0.453256         2.369008         1.137331
 H        -3.368751         3.329476         0.339167
 H        -2.254830         4.400687         1.043614
 H        -1.651808         3.053402        -1.743345
 H        -0.265183         3.172593        -0.738042
 H        -2.431628         1.031631        -0.731950
 H        -1.588644        -0.588263         2.463079
 H        -2.637985        -0.656125         0.989911
