19
Iteration:  4035
 O         0.268601        -0.427081         0.403267
 C        -0.660258         0.558376         0.858814
 C        -0.454604         1.851534         1.621439
 C        -1.900449         2.057356         1.133824
 C        -2.121353         3.468776         0.615558
 C        -1.335016         2.846924        -0.630162
 C        -1.576049         1.515537        -0.166546
 O        -2.632896         1.123632         1.941843
 C        -1.881659        -0.076068         1.575016
 H         0.774390        -0.037598        -0.281571
 H        -0.291149         1.837294         2.702162
 H         0.155551         2.684807         1.107903
 H        -3.143910         3.752341         0.349675
 H        -1.659212         4.251125         1.240136
 H        -2.106028         3.203449        -1.428444
 H        -0.361846         3.271700        -0.586851
 H        -2.325660         0.950484        -0.633248
 H        -1.565032        -0.818418         2.332140
 H        -2.509989        -0.649241         0.948723
