19
Iteration:  3494
 O         0.328113        -0.393849         0.398657
 C        -0.682732         0.605105         0.823369
 C        -0.430756         1.841802         1.683965
 C        -1.937597         2.042683         1.236003
 C        -2.115833         3.456777         0.605643
 C        -1.310913         2.969924        -0.635818
 C        -1.512126         1.467433        -0.192180
 O        -2.682257         1.084733         1.901080
 C        -1.986775        -0.095500         1.547596
 H         0.542771        -0.352645        -0.648477
 H        -0.186622         1.778628         2.762947
 H         0.332215         2.497968         1.340246
 H        -3.106430         3.862531         0.249622
 H        -1.723503         4.228674         1.421541
 H        -1.625186         3.081541        -1.699116
 H        -0.287663         3.222903        -0.545216
 H        -2.383553         0.873987        -0.564243
 H        -1.621800        -0.644238         2.425471
 H        -2.570104        -0.797390         1.005534
