19
Iteration:   246charge 0 multiplicity 1
 O         0.251328        -0.361500         0.310692
 C        -0.714013         0.586991         0.754529
 C        -0.374680         1.799575         1.682324
 C        -1.931978         2.060682         1.178309
 C        -2.172452         3.459324         0.588570
 C        -1.348832         2.918416        -0.586340
 C        -1.523189         1.462142        -0.180969
 O        -2.661628         1.144026         1.950048
 C        -1.860911        -0.079066         1.582528
 H         0.542292        -0.909131         1.055733
 H        -0.296537         1.656241         2.815327
 H         0.446491         2.535062         1.310617
 H        -3.172345         3.750331         0.228187
 H        -1.665764         4.263222         1.114397
 H        -1.650027         3.206398        -1.572160
 H        -0.232987         3.288973        -0.592358
 H        -2.297543         0.884008        -0.856014
 H        -1.485443        -0.646937         2.387980
 H        -2.530493        -0.775672         1.066979
