19
Iteration:  1626charge 0 multiplicity 1
 O         0.239355        -0.395970         0.240328
 C        -0.673352         0.566725         0.771066
 C        -0.438024         1.784595         1.675938
 C        -1.836407         2.090639         1.210774
 C        -2.196121         3.494025         0.598685
 C        -1.209673         3.036422        -0.544162
 C        -1.555677         1.466442        -0.099296
 O        -2.721289         1.080198         1.902600
 C        -1.922063        -0.133847         1.546017
 H         0.971499        -0.598145         0.965239
 H        -0.228095         1.633125         2.743283
 H         0.378337         2.494146         1.407958
 H        -3.177384         3.610341         0.275924
 H        -1.978175         4.418140         1.196948
 H        -1.736871         3.247331        -1.440129
 H        -0.158882         3.299933        -0.555944
 H        -2.272738         0.971528        -0.689858
 H        -1.549429        -0.704371         2.414617
 H        -2.582436        -0.714327         0.841621
