19
Iteration:  3888charge 0 multiplicity 1
 O         0.381572        -0.333603         0.362267
 C        -0.662557         0.568502         0.751609
 C        -0.382157         1.810289         1.633329
 C        -1.877481         2.048259         1.231022
 C        -2.192396         3.408936         0.727725
 C        -1.319095         2.888751        -0.677562
 C        -1.536364         1.462716        -0.230092
 O        -2.732019         1.172989         1.917001
 C        -1.951007        -0.018198         1.606391
 H         0.164572        -1.351965         0.351356
 H        -0.223617         1.473771         2.687352
 H         0.305314         2.580875         1.259340
 H        -3.246158         3.591527         0.408063
 H        -1.770945         4.312231         1.345501
 H        -1.905051         3.137973        -1.581006
 H        -0.235166         3.251654        -0.601801
 H        -2.296271         0.988179        -0.960982
 H        -1.623686        -0.502470         2.477312
 H        -2.520976        -0.669409         0.999766
