19
Iteration:  1276charge 0 multiplicity 1
 O         0.341741        -0.333329         0.327505
 C        -0.748177         0.532344         0.768839
 C        -0.424446         1.753643         1.661589
 C        -1.904419         2.095008         1.195171
 C        -2.172543         3.501164         0.631665
 C        -1.287211         2.946742        -0.664339
 C        -1.545674         1.476315        -0.162336
 O        -2.698516         1.117887         1.977137
 C        -1.896402        -0.104652         1.527819
 H         0.679467        -0.830948         1.188599
 H        -0.108497         1.565462         2.634366
 H         0.429565         2.383740         1.182132
 H        -3.168822         3.782407         0.432774
 H        -1.773701         4.273283         1.327554
 H        -1.890592         3.087428        -1.628748
 H        -0.220578         3.313879        -0.646141
 H        -2.306451         1.110354        -0.885112
 H        -1.625740        -0.542287         2.513668
 H        -2.577239        -0.833725         0.864176
