19
Iteration:  2408charge 0 multiplicity 1
 O         0.304026        -0.381027         0.366582
 C        -0.662234         0.601921         0.766806
 C        -0.388762         1.667894         1.810181
 C        -1.908867         2.087715         1.244683
 C        -2.186643         3.571352         0.633076
 C        -1.295604         2.996482        -0.663079
 C        -1.447194         1.536874        -0.163765
 O        -2.758637         1.069560         1.851745
 C        -1.858620        -0.071520         1.473255
 H        -0.188936        -1.269926         0.307701
 H        -0.351340         1.369311         2.818371
 H         0.402661         2.504805         1.627494
 H        -3.293137         3.688462         0.350370
 H        -1.713649         4.342395         1.174307
 H        -1.941289         3.080282        -1.502210
 H        -0.283156         3.297215        -0.546717
 H        -2.212327         0.883949        -0.680522
 H        -1.615198        -0.722082         2.358550
 H        -2.565233        -0.606453         0.745010
