19
Iteration:  4694charge 0 multiplicity 1
 O         0.295355        -0.306591         0.308833
 C        -0.731798         0.464921         0.777769
 C        -0.435384         1.727531         1.615193
 C        -1.868152         2.091035         1.169191
 C        -2.211995         3.450604         0.540781
 C        -1.366044         2.880306        -0.642718
 C        -1.549027         1.362180        -0.154990
 O        -2.568634         1.261879         1.997511
 C        -1.898702        -0.049773         1.604273
 H         0.895095        -0.404116         1.056005
 H        -0.412210         1.709859         2.712777
 H         0.437151         2.301452         1.168172
 H        -3.348763         3.598419         0.338381
 H        -1.852685         4.285404         1.322954
 H        -1.689549         3.234460        -1.656333
 H        -0.413288         3.230220        -0.565446
 H        -2.457710         1.010648        -0.552392
 H        -1.409764        -0.436967         2.534721
 H        -2.656390        -0.667668         1.180197
