19
Iteration:  3906
 O         0.389758        -0.239236         0.379309
 C        -0.720908         0.524702         0.732971
 C        -0.418232         1.714704         1.596404
 C        -1.909403         2.071946         1.163070
 C        -2.094240         3.493806         0.643390
 C        -1.296342         2.984004        -0.579580
 C        -1.586803         1.394485        -0.152553
 O        -2.743710         1.121242         1.948081
 C        -1.893609        -0.059968         1.575930
 H         0.143626        -1.199797         0.672767
 H        -0.171273         1.714228         2.609922
 H         0.327523         2.258079         0.985539
 H        -3.149066         3.608039         0.225436
 H        -1.778932         4.269036         1.261601
 H        -1.789429         3.156382        -1.493779
 H        -0.309763         3.323837        -0.899060
 H        -2.383796         0.838317        -0.596503
 H        -1.598961        -0.524803         2.557520
 H        -2.604403        -0.764385         1.045807
