19
Iteration:  3987
 O         0.373325        -0.414765         0.405483
 C        -0.713040         0.462391         0.802577
 C        -0.353553         1.734194         1.614527
 C        -1.861814         2.105491         1.177586
 C        -2.245711         3.407640         0.557982
 C        -1.332498         3.124782        -0.591766
 C        -1.571779         1.448326        -0.169165
 O        -2.646809         1.202865         1.894895
 C        -1.872090        -0.069327         1.633772
 H         0.068929        -0.998947        -0.355445
 H        -0.290577         1.563112         2.748690
 H         0.428585         2.389896         1.278262
 H        -3.317751         3.272134         0.281521
 H        -2.191547         4.422581         1.177057
 H        -1.854683         3.327629        -1.510582
 H        -0.280927         3.360287        -0.380642
 H        -2.490625         0.946717        -0.717824
 H        -1.757524        -0.460548         2.589947
 H        -2.536836        -0.723585         1.140311
