19
Iteration:  4118
 O         0.216600        -0.422536         0.312932
 C        -0.639727         0.604350         0.770331
 C        -0.394692         1.820486         1.637572
 C        -1.908796         2.066032         1.177099
 C        -2.275304         3.430825         0.573714
 C        -1.265086         2.961550        -0.700993
 C        -1.527056         1.459375        -0.137687
 O        -2.625653         1.094548         2.064263
 C        -1.901568        -0.016556         1.598459
 H         0.842397        -0.692288         1.121092
 H        -0.186535         1.620050         2.723662
 H         0.267568         2.534828         1.084155
 H        -3.287373         3.577825         0.229574
 H        -1.877357         4.241531         1.258950
 H        -1.685142         3.090220        -1.712305
 H        -0.340756         3.537227        -0.750280
 H        -2.207878         0.847383        -0.885459
 H        -1.455029        -0.602986         2.428147
 H        -2.596792        -0.553168         0.809652
