19
Iteration:  4683
 O         0.306190        -0.344510         0.319191
 C        -0.705901         0.522639         0.753189
 C        -0.357049         1.739865         1.659978
 C        -1.815422         2.093807         1.174238
 C        -2.300757         3.401138         0.618614
 C        -1.327591         2.928076        -0.698983
 C        -1.615456         1.442430        -0.204316
 O        -2.590058         1.207625         1.991037
 C        -1.963432        -0.006523         1.668595
 H         1.104484        -0.561768         0.998838
 H        -0.175477         1.557867         2.727880
 H         0.571910         2.223223         1.216276
 H        -3.406034         3.534163         0.288143
 H        -1.844239         4.473319         0.893669
 H        -1.675479         2.955864        -1.766156
 H        -0.340789         3.141404        -0.622706
 H        -2.371245         0.917001        -0.725978
 H        -1.699782        -0.568118         2.615510
 H        -2.611359        -0.667368         1.115287
