19
Iteration:  3338
 O         0.257198        -0.380972         0.428688
 C        -0.642284         0.566740         0.753848
 C        -0.474400         1.769508         1.664372
 C        -1.923336         2.129207         1.209029
 C        -2.211894         3.421807         0.605865
 C        -1.212785         2.948978        -0.571105
 C        -1.494270         1.416673        -0.212408
 O        -2.643143         1.140629         1.938525
 C        -1.905138        -0.063522         1.555570
 H         0.294309        -0.357367        -0.466562
 H        -0.437396         1.416039         2.695249
 H         0.175831         2.632134         1.299101
 H        -3.279866         3.627893         0.081738
 H        -1.898103         4.311507         1.241785
 H        -1.607676         3.306990        -1.525110
 H        -0.189000         3.323506        -0.523523
 H        -2.367428         0.872108        -0.714977
 H        -1.539828        -0.617687         2.432817
 H        -2.617951        -0.677145         0.912271
