19
Iteration:   517
 O         0.280376        -0.333836         0.235480
 C        -0.663869         0.524187         0.841057
 C        -0.398084         1.753222         1.719565
 C        -1.796797         2.044654         1.244095
 C        -2.162394         3.474995         0.542702
 C        -1.339250         2.969964        -0.674581
 C        -1.548397         1.512884        -0.089390
 O        -2.761320         1.141304         1.855599
 C        -1.871063        -0.083323         1.632296
 H         0.896606        -0.877350         0.915647
 H        -0.212971         1.512810         2.772898
 H         0.394297         2.435978         1.237721
 H        -3.258858         3.338921         0.568421
 H        -2.026876         4.399932         1.082402
 H        -1.920274         2.927073        -1.560904
 H        -0.298942         3.393805        -0.749102
 H        -2.368168         1.096554        -0.527006
 H        -1.639333        -0.620285         2.651631
 H        -2.528614        -0.614044         0.915072
