19
Iteration:   572
 O         0.263448        -0.369218         0.296246
 C        -0.696468         0.567260         0.775018
 C        -0.464230         1.893272         1.603843
 C        -1.928776         2.062813         1.225185
 C        -2.219705         3.465140         0.579477
 C        -1.207075         2.948998        -0.616001
 C        -1.544373         1.471313        -0.118086
 O        -2.615028         1.078599         1.998366
 C        -1.940851        -0.094131         1.525017
 H         0.626695        -0.841847         1.123641
 H        -0.112334         1.999733         2.687126
 H         0.292670         2.308036         0.975586
 H        -3.282596         3.571182         0.251920
 H        -1.893281         4.254239         1.214398
 H        -1.512357         3.216137        -1.584070
 H        -0.098045         3.214853        -0.538509
 H        -2.276837         0.932101        -0.638347
 H        -1.507733        -0.679900         2.299891
 H        -2.611859        -0.831229         1.159631
