19
Iteration:   647charge 0 multiplicity 1
 O         0.254668        -0.312713         0.300384
 C        -0.752367         0.529220         0.808902
 C        -0.392996         1.823337         1.649222
 C        -1.928808         2.030569         1.172392
 C        -2.168535         3.484316         0.617397
 C        -1.270888         2.910767        -0.617355
 C        -1.550548         1.486593        -0.145605
 O        -2.657720         1.106417         1.965830
 C        -1.872983        -0.099230         1.543511
 H         0.684832        -0.707445         1.011948
 H        -0.184450         1.771944         2.755338
 H         0.242817         2.512320         1.083915
 H        -3.239753         3.720626         0.368869
 H        -1.750525         4.296959         1.182554
 H        -1.548275         3.147205        -1.615493
 H        -0.151850         3.302556        -0.639188
 H        -2.278931         0.837150        -0.795267
 H        -1.552095        -0.538748         2.480794
 H        -2.547260        -0.761188         0.924979
