19
Iteration:  4484charge 0 multiplicity 1
 O         0.264321        -0.413862         0.269689
 C        -0.711988         0.530153         0.772921
 C        -0.434020         1.839047         1.662375
 C        -1.888613         2.044502         1.194737
 C        -2.190087         3.444634         0.573746
 C        -1.339161         2.953114        -0.743648
 C        -1.592180         1.417968        -0.174802
 O        -2.656101         1.162635         2.062691
 C        -1.840619        -0.052201         1.658652
 H         1.116503        -0.280420         0.883963
 H        -0.255143         1.782156         2.785686
 H         0.394053         2.429404         1.290517
 H        -3.198703         3.700691         0.286174
 H        -1.702676         4.445202         1.021978
 H        -1.543703         2.927836        -1.807953
 H        -0.289181         3.326631        -0.646469
 H        -2.299503         0.918738        -0.889490
 H        -1.429756        -0.376414         2.671055
 H        -2.586797        -0.717985         1.119418
