19
Iteration:  4586
 O         0.333158        -0.276960         0.279477
 C        -0.729358         0.573412         0.830654
 C        -0.327935         1.804054         1.642378
 C        -1.857957         2.110486         1.166438
 C        -2.151730         3.445042         0.514982
 C        -1.315911         2.880962        -0.638155
 C        -1.685752         1.337955        -0.145294
 O        -2.634526         1.174225         1.969555
 C        -1.937581        -0.052973         1.669500
 H         0.366313        -1.067900         0.861847
 H        -0.136316         1.689522         2.699460
 H         0.378100         2.414709         1.022106
 H        -3.261353         3.459714         0.371186
 H        -1.821211         4.293155         0.971253
 H        -1.903193         3.230889        -1.529958
 H        -0.344229         3.210013        -0.582379
 H        -2.485118         0.886467        -0.655453
 H        -1.469137        -0.572389         2.586039
 H        -2.440013        -0.812646         1.143614
