19
Iteration:  3392charge 0 multiplicity 1
 O         0.372782        -0.309992         0.388178
 C        -0.702749         0.538065         0.717897
 C        -0.482124         1.688507         1.708121
 C        -1.886994         2.149700         1.198158
 C        -2.139173         3.476645         0.657955
 C        -1.287860         2.945048        -0.613879
 C        -1.526841         1.471609        -0.182799
 O        -2.742043         1.133941         1.878708
 C        -1.885491        -0.076766         1.566889
 H         0.267099        -1.194652         0.358966
 H        -0.457376         1.630686         2.809538
 H         0.399246         2.400492         1.380708
 H        -3.302781         3.575366         0.384964
 H        -1.535135         4.292516         1.067416
 H        -1.873672         3.256236        -1.465162
 H        -0.250333         3.260748        -0.843170
 H        -2.367118         0.837537        -0.679790
 H        -1.491283        -0.520728         2.452181
 H        -2.559057        -0.761455         0.997615
