19
Iteration:  2600
 O         0.231947        -0.445367         0.435159
 C        -0.676227         0.565136         0.748851
 C        -0.374907         1.763428         1.718326
 C        -1.826930         2.087457         1.191150
 C        -2.180903         3.391010         0.721244
 C        -1.375305         2.997533        -0.591955
 C        -1.432604         1.474107        -0.220870
 O        -2.737520         1.148745         1.801401
 C        -1.913107        -0.025827         1.513366
 H         1.090771        -0.015408         0.187400
 H        -0.235123         1.536726         2.751539
 H         0.378237         2.523871         1.356768
 H        -3.319824         3.489597         0.480018
 H        -1.905638         4.220372         1.353912
 H        -1.807888         3.241480        -1.530286
 H        -0.301586         3.243201        -0.455703
 H        -2.218744         0.913836        -0.737119
 H        -1.683990        -0.554923         2.468155
 H        -2.566871        -0.623514         0.739023
