19
Iteration:  4525
 O         0.207271        -0.402015         0.355720
 C        -0.671794         0.551245         0.768609
 C        -0.388032         1.797566         1.578011
 C        -1.837180         2.104429         1.164989
 C        -2.248976         3.389219         0.583692
 C        -1.348606         2.931141        -0.701957
 C        -1.560364         1.403103        -0.149153
 O        -2.638547         1.213390         1.945624
 C        -1.849617        -0.063515         1.666062
 H         0.815772        -0.553940         0.985005
 H         0.003825         1.801283         2.592485
 H         0.277391         2.486802         1.066265
 H        -3.328294         3.395324         0.793188
 H        -1.788493         4.321622         1.294610
 H        -1.497950         3.278879        -1.701373
 H        -0.358817         3.511698        -0.529076
 H        -2.544106         0.964731        -0.539857
 H        -1.430152        -0.398202         2.569997
 H        -2.414601        -0.883081         1.078183
