19
Iteration:  1977charge 0 multiplicity 1
 O         0.232216        -0.426270         0.421984
 C        -0.666995         0.597790         0.717280
 C        -0.430734         1.724002         1.616264
 C        -1.934121         2.030015         1.224395
 C        -2.154478         3.398999         0.626538
 C        -1.274390         3.000825        -0.568999
 C        -1.541734         1.492194        -0.166846
 O        -2.720457         1.161224         1.917773
 C        -1.838171        -0.064427         1.497532
 H         1.076376        -0.009062         0.461180
 H        -0.276336         1.382701         2.704466
 H         0.294359         2.612634         1.407557
 H        -3.263518         3.574739         0.466442
 H        -1.990184         4.433998         1.245651
 H        -1.655238         3.311552        -1.552326
 H        -0.126479         3.215310        -0.443520
 H        -2.305287         1.105417        -0.804745
 H        -1.643013        -0.643847         2.431690
 H        -2.233866        -0.634248         0.655340
