19
Iteration:  4498
 O         0.278945        -0.410598         0.320025
 C        -0.663000         0.546157         0.737263
 C        -0.417562         1.717008         1.543605
 C        -1.932590         2.105847         1.185637
 C        -2.187255         3.449613         0.527896
 C        -1.327398         2.936536        -0.608383
 C        -1.545526         1.421320        -0.164149
 O        -2.676436         1.214859         2.008348
 C        -1.848439        -0.028007         1.714477
 H         0.994542        -0.412148         0.846865
 H        -0.183330         1.508258         2.609984
 H         0.213442         2.548029         1.142064
 H        -3.277463         3.487208         0.251330
 H        -1.953529         4.221231         1.059073
 H        -1.931813         3.346290        -1.524955
 H        -0.341926         3.304129        -0.770942
 H        -2.370489         0.957669        -0.626527
 H        -1.351954        -0.546648         2.660864
 H        -2.394211        -0.796452         1.221706
