19
Iteration:  2547
 O         0.259763        -0.385543         0.430053
 C        -0.734007         0.571325         0.733821
 C        -0.483867         1.716823         1.668804
 C        -1.956143         2.065063         1.201021
 C        -2.151313         3.452498         0.652006
 C        -1.214956         3.005641        -0.565982
 C        -1.536803         1.497340        -0.241883
 O        -2.643648         1.124657         1.932257
 C        -1.879439        -0.104414         1.467496
 H         1.175301        -0.009197         0.290864
 H        -0.436318         1.513573         2.703629
 H         0.325322         2.489184         1.409650
 H        -3.239328         3.547950         0.270730
 H        -1.781338         4.301647         1.142611
 H        -1.743767         3.254315        -1.449434
 H        -0.223399         3.238226        -0.418552
 H        -2.311139         1.080346        -0.777451
 H        -1.605617        -0.607663         2.482723
 H        -2.558233        -0.821674         0.926982
