19
Iteration:  3217charge 0 multiplicity 1
 O         0.302158        -0.314555         0.277272
 C        -0.697083         0.547542         0.726357
 C        -0.411128         1.763535         1.678617
 C        -1.912881         2.125425         1.262045
 C        -2.153940         3.421680         0.583949
 C        -1.275448         2.861234        -0.586189
 C        -1.534787         1.472378        -0.118880
 O        -2.725135         1.133080         1.921302
 C        -1.899164        -0.020178         1.563608
 H         0.865507        -0.839192         0.992411
 H        -0.460793         1.568168         2.792338
 H         0.279580         2.502654         1.354857
 H        -3.219621         3.562865         0.304871
 H        -1.830409         4.388546         0.907179
 H        -1.644493         3.139149        -1.503702
 H        -0.196185         3.137658        -0.642721
 H        -2.392500         1.020716        -0.713416
 H        -1.631532        -0.551647         2.410032
 H        -2.406672        -0.813521         0.964549
