19
Iteration:  1132charge 0 multiplicity 1
 O         0.286200        -0.325303         0.266572
 C        -0.732594         0.451482         0.745471
 C        -0.349488         1.778218         1.660367
 C        -1.896167         2.076185         1.230181
 C        -2.165621         3.451755         0.586886
 C        -1.314690         2.988527        -0.543011
 C        -1.535336         1.452459        -0.169851
 O        -2.698058         1.167552         1.878367
 C        -1.922113        -0.112081         1.635356
 H         0.749538        -0.562174         1.139439
 H        -0.014881         1.810500         2.699515
 H         0.372708         2.301587         1.162534
 H        -3.129813         3.782135         0.308534
 H        -1.779444         4.291664         1.165495
 H        -1.978211         3.200681        -1.506571
 H        -0.384899         3.357877        -0.517326
 H        -2.237774         0.872989        -0.723492
 H        -1.538227        -0.447861         2.606426
 H        -2.496322        -0.854865         0.955509
