19
Iteration:  1128
 O         0.283038        -0.332986         0.259338
 C        -0.706808         0.489362         0.785315
 C        -0.342048         1.747529         1.700786
 C        -1.876937         2.062755         1.218299
 C        -2.167003         3.428503         0.598269
 C        -1.353771         2.976428        -0.582797
 C        -1.560309         1.457987        -0.124256
 O        -2.704272         1.182859         1.846651
 C        -1.919520        -0.076970         1.612163
 H         0.778283        -0.600467         1.010035
 H         0.064861         1.673754         2.754850
 H         0.426718         2.332534         1.030922
 H        -3.278194         3.725272         0.224835
 H        -1.818473         4.291354         1.283938
 H        -1.853632         3.179392        -1.515020
 H        -0.182504         3.329204        -0.476364
 H        -2.356604         0.973636        -0.734799
 H        -1.496102        -0.411616         2.593504
 H        -2.449065        -0.850247         0.993100
