19
Iteration:  3753
 O         0.284280        -0.445389         0.334145
 C        -0.745222         0.557820         0.768420
 C        -0.414270         1.822681         1.592457
 C        -1.904784         2.091459         1.225528
 C        -2.165841         3.389031         0.583544
 C        -1.296383         2.957827        -0.586895
 C        -1.566296         1.465566        -0.218221
 O        -2.647291         1.130586         1.931398
 C        -1.877096        -0.032961         1.647099
 H         1.211397        -0.101010         0.687394
 H        -0.416020         1.752544         2.683002
 H         0.257586         2.527321         1.202806
 H        -3.272493         3.672583         0.384968
 H        -1.812097         4.198707         1.155769
 H        -1.855884         3.144743        -1.497856
 H        -0.324982         3.361813        -0.567823
 H        -2.416636         0.939647        -0.685854
 H        -1.442644        -0.558021         2.465486
 H        -2.498836        -0.657547         1.138186
