19
Iteration:  4633
 O         0.170826        -0.398367         0.309273
 C        -0.619466         0.549277         0.726862
 C        -0.368368         1.910393         1.633442
 C        -1.895414         2.063011         1.144345
 C        -2.214855         3.499889         0.567922
 C        -1.370402         2.963039        -0.671140
 C        -1.512235         1.350084        -0.190214
 O        -2.614527         1.144057         1.980354
 C        -1.832718        -0.065541         1.717933
 H         0.512537        -0.864527         0.979545
 H        -0.513443         1.723548         2.717783
 H         0.416148         2.610828         1.419286
 H        -3.200617         3.632971         0.216634
 H        -2.019135         4.260258         1.220100
 H        -1.747940         3.172912        -1.644499
 H        -0.196632         3.101568        -0.494435
 H        -2.453359         0.873809        -0.622254
 H        -1.533183        -0.568348         2.652687
 H        -2.418268        -0.845666         1.125392
