19
Iteration:  3150
 O         0.265561        -0.422451         0.356538
 C        -0.627108         0.538732         0.796751
 C        -0.418312         1.824091         1.614800
 C        -1.869048         2.030413         1.219010
 C        -2.230246         3.445310         0.582562
 C        -1.312356         2.998322        -0.591043
 C        -1.568632         1.522118        -0.183938
 O        -2.676226         1.101093         1.922100
 C        -1.853234        -0.017388         1.562015
 H         0.542454        -0.836852         1.117194
 H        -0.402064         1.458845         2.668536
 H         0.342837         2.548344         1.224763
 H        -3.273852         3.625324         0.187366
 H        -1.916930         4.295676         1.168710
 H        -1.375051         3.247225        -1.556344
 H        -0.213333         3.258866        -0.437306
 H        -2.427582         1.040373        -0.800354
 H        -1.777164        -0.587364         2.457400
 H        -2.397334        -0.740169         0.868570
