19
Iteration:  3501charge 0 multiplicity 1
 O         0.289542        -0.377186         0.411188
 C        -0.700799         0.613293         0.793428
 C        -0.435321         1.857220         1.718053
 C        -1.947460         2.084759         1.198942
 C        -2.074664         3.457574         0.622129
 C        -1.296671         2.989420        -0.638055
 C        -1.503416         1.392091        -0.197005
 O        -2.697038         1.069837         1.938637
 C        -1.931748        -0.114407         1.527929
 H         0.557002        -0.119323        -0.476677
 H        -0.291561         1.643094         2.752960
 H         0.258972         2.493096         1.090334
 H        -3.104523         3.832709         0.351648
 H        -1.730157         4.223812         1.241814
 H        -1.723525         3.169502        -1.643782
 H        -0.225013         3.099847        -0.545607
 H        -2.461700         0.821236        -0.552593
 H        -1.590780        -0.550082         2.429733
 H        -2.504256        -0.791384         0.819688
