19
Iteration:   756charge 0 multiplicity 1
 O         0.309106        -0.325028         0.318072
 C        -0.749846         0.511792         0.789494
 C        -0.507171         1.828289         1.635632
 C        -1.939297         2.055974         1.187044
 C        -2.135123         3.505814         0.637926
 C        -1.264265         2.976353        -0.648532
 C        -1.554924         1.486020        -0.258951
 O        -2.604598         1.078710         2.006992
 C        -1.885918        -0.112366         1.571737
 H         0.565562        -0.812780         1.136361
 H        -0.218034         1.718283         2.735498
 H         0.246623         2.263912         1.085401
 H        -3.165865         3.725313         0.213341
 H        -1.812238         4.277845         1.303974
 H        -1.714115         3.291173        -1.523808
 H        -0.199560         3.305613        -0.447672
 H        -2.490389         0.944986        -0.808565
 H        -1.501316        -0.680055         2.351023
 H        -2.558813        -0.845997         1.138546
