19
Iteration:  1299
 O         0.332668        -0.324607         0.272787
 C        -0.651571         0.593535         0.748310
 C        -0.466109         1.718783         1.761056
 C        -1.788988         2.062092         1.219294
 C        -2.088457         3.412466         0.658528
 C        -1.428619         2.919690        -0.621718
 C        -1.518863         1.379262        -0.217798
 O        -2.716483         1.194338         1.868926
 C        -1.958489         0.013117         1.587733
 H         0.939405        -0.693800         0.844953
 H        -0.407891         1.423677         2.767885
 H         0.392984         2.484862         1.575321
 H        -3.107702         3.468018         0.505013
 H        -1.775093         4.300040         1.134424
 H        -2.000423         3.197048        -1.488962
 H        -0.329401         3.288019        -0.588704
 H        -2.317892         0.801429        -0.778040
 H        -1.675601        -0.544009         2.541024
 H        -2.778546        -0.556749         0.947445
