19
Iteration:  1087charge 0 multiplicity 1
 O         0.208691        -0.388527         0.223454
 C        -0.678905         0.548403         0.816890
 C        -0.443397         1.776249         1.768440
 C        -1.974924         2.063705         1.170499
 C        -2.212952         3.417566         0.539524
 C        -1.255893         2.996520        -0.609315
 C        -1.494125         1.508350        -0.186233
 O        -2.588900         1.144798         2.017546
 C        -1.865835        -0.064927         1.539253
 H         0.743979        -0.953756         0.851855
 H        -0.263133         1.672260         2.843486
 H         0.310109         2.399929         1.371026
 H        -3.245820         3.544996         0.279668
 H        -1.980123         4.345977         1.093073
 H        -1.758622         3.147427        -1.643599
 H        -0.286557         3.369925        -0.519577
 H        -2.201889         0.855138        -0.650886
 H        -1.480476        -0.512235         2.474148
 H        -2.657744        -0.650859         0.933222
