19
Iteration:  1797charge 0 multiplicity 1
 O         0.299384        -0.359977         0.382101
 C        -0.612915         0.553806         0.761065
 C        -0.426436         1.704050         1.773138
 C        -1.885824         2.071439         1.233662
 C        -2.150374         3.471615         0.712722
 C        -1.325730         2.977512        -0.660364
 C        -1.463539         1.482667        -0.186145
 O        -2.751019         1.149575         1.849479
 C        -1.909122        -0.058823         1.497581
 H         0.035473        -0.886876        -0.415066
 H        -0.517801         1.313920         2.702359
 H         0.324319         2.595192         1.833884
 H        -3.196734         3.611192         0.374758
 H        -1.666471         4.217366         1.327414
 H        -1.863096         3.217748        -1.531232
 H        -0.252102         3.293006        -0.748858
 H        -2.293222         1.059708        -0.782277
 H        -1.694708        -0.526687         2.453467
 H        -2.374491        -0.685242         0.864077
