19
Iteration:  4965
 O         0.255824        -0.426422         0.328374
 C        -0.697303         0.580558         0.753082
 C        -0.375827         1.814018         1.632636
 C        -1.864575         2.059590         1.156967
 C        -2.230378         3.487230         0.571963
 C        -1.339910         2.932446        -0.676865
 C        -1.564998         1.434440        -0.202180
 O        -2.636625         1.152600         1.960393
 C        -1.835570        -0.038705         1.730235
 H         0.322340        -0.937312         1.074684
 H        -0.263414         1.618143         2.707838
 H         0.255639         2.616393         1.326490
 H        -3.182891         3.823762         0.272485
 H        -1.790150         4.271834         1.036068
 H        -1.768191         3.209169        -1.724952
 H        -0.334402         3.338970        -0.835705
 H        -2.397970         0.748205        -0.662777
 H        -1.412079        -0.372790         2.648820
 H        -2.447932        -0.902463         1.303759
