19
Iteration:  4661charge 0 multiplicity 1
 O         0.226562        -0.423238         0.317047
 C        -0.629847         0.534152         0.732224
 C        -0.361781         1.812018         1.621105
 C        -1.861652         2.080222         1.300249
 C        -2.213311         3.378767         0.500222
 C        -1.367907         2.971367        -0.660808
 C        -1.487341         1.415538        -0.102703
 O        -2.698086         1.208082         2.024086
 C        -1.882949        -0.017238         1.569666
 H         0.856229        -0.661173         0.968226
 H        -0.005293         1.789773         2.653979
 H         0.377107         2.518031         1.108378
 H        -3.308020         3.374632         0.074459
 H        -2.095022         4.485785         1.020926
 H        -1.881682         3.072217        -1.672189
 H        -0.403630         3.265845        -0.769183
 H        -2.361931         0.987399        -0.522094
 H        -1.475474        -0.520042         2.485832
 H        -2.517815        -0.700689         1.037235
