19
Iteration:  2472charge 0 multiplicity 1
 O         0.334331        -0.354291         0.436182
 C        -0.708326         0.581041         0.722131
 C        -0.460612         1.736235         1.680935
 C        -1.963520         2.051516         1.202926
 C        -2.142951         3.446637         0.622741
 C        -1.221013         3.010363        -0.514578
 C        -1.538468         1.497098        -0.225795
 O        -2.697881         1.105334         1.895728
 C        -1.902585        -0.079223         1.500529
 H        -0.010329        -1.101404        -0.012028
 H        -0.298522         1.535175         2.712645
 H         0.317005         2.555689         1.395763
 H        -3.225220         3.683834         0.296999
 H        -1.860894         4.203555         1.296132
 H        -1.484738         3.490853        -1.596362
 H        -0.141821         3.267379        -0.329483
 H        -2.336528         1.117143        -0.844737
 H        -1.399480        -0.736462         2.313423
 H        -2.507821        -0.687775         0.954860
