19
Iteration:  3459charge 0 multiplicity 1
 O         0.321820        -0.319751         0.447706
 C        -0.685074         0.528326         0.725690
 C        -0.372844         1.693403         1.733680
 C        -1.820711         2.043816         1.227012
 C        -2.255038         3.395084         0.590398
 C        -1.285083         3.003876        -0.607912
 C        -1.521699         1.504721        -0.243215
 O        -2.679534         1.172268         1.884906
 C        -1.931000        -0.053551         1.592747
 H        -0.152319        -0.995865        -0.218254
 H        -0.393368         1.413874         2.775678
 H         0.450992         2.363435         1.333944
 H        -3.309267         3.358591         0.087383
 H        -2.026440         4.271173         1.240771
 H        -1.608039         3.513947        -1.553520
 H        -0.336642         3.401339        -0.445993
 H        -2.334637         1.071930        -0.933983
 H        -1.445826        -0.456647         2.422203
 H        -2.672196        -0.699365         1.116174
