19
Iteration:  3646
 O         0.386318        -0.311964         0.409045
 C        -0.741201         0.506478         0.693282
 C        -0.363006         1.816728         1.650717
 C        -1.932552         2.025766         1.158700
 C        -2.140556         3.436371         0.644675
 C        -1.266852         2.966122        -0.626299
 C        -1.628370         1.432046        -0.197760
 O        -2.689475         1.149899         1.931387
 C        -1.923076        -0.024943         1.677759
 H         0.325741        -0.710659        -0.582337
 H        -0.304461         1.615984         2.737188
 H         0.493510         2.394169         1.350209
 H        -3.222862         3.554346         0.416330
 H        -1.801535         4.162631         1.313081
 H        -1.691230         2.999325        -1.619575
 H        -0.235407         3.205036        -0.757265
 H        -2.577366         0.987264        -0.673172
 H        -1.671812        -0.353127         2.672445
 H        -2.528794        -0.892221         1.049823
