19
Iteration:  1093
 O         0.217358        -0.410715         0.209321
 C        -0.686867         0.597421         0.755643
 C        -0.437176         1.794120         1.814757
 C        -1.885650         2.088642         1.235785
 C        -2.197798         3.414264         0.526652
 C        -1.327842         2.966263        -0.589753
 C        -1.479933         1.470766        -0.167807
 O        -2.631962         1.156172         1.991520
 C        -1.887367        -0.067892         1.540813
 H         0.696529        -0.771164         0.907263
 H        -0.288658         1.460854         2.865698
 H         0.359535         2.523489         1.389687
 H        -3.268330         3.453899         0.072330
 H        -1.938501         4.319210         1.109343
 H        -1.701287         3.107716        -1.544785
 H        -0.214861         3.407228        -0.662291
 H        -2.198066         0.949352        -0.901819
 H        -1.430182        -0.543294         2.435563
 H        -2.569320        -0.727990         1.080965
