19
Iteration:  3116
 O         0.326604        -0.340984         0.375628
 C        -0.696871         0.571871         0.768805
 C        -0.454661         1.726453         1.630724
 C        -1.892524         2.035871         1.216115
 C        -2.092384         3.444364         0.642546
 C        -1.354155         2.959231        -0.672806
 C        -1.472078         1.485149        -0.203066
 O        -2.697140         1.142034         1.906401
 C        -1.976225        -0.056292         1.602550
 H         1.071241        -0.482321         0.948955
 H        -0.331979         1.501760         2.714876
 H         0.444358         2.424611         1.409718
 H        -3.221516         3.664401         0.414592
 H        -1.861351         4.219440         1.407872
 H        -1.976983         3.024154        -1.481541
 H        -0.329947         3.432189        -0.829667
 H        -2.329193         0.931183        -0.797196
 H        -1.730420        -0.624113         2.483896
 H        -2.554713        -0.639318         0.755368
