19
Iteration:  4937charge 0 multiplicity 1
 O         0.258422        -0.441260         0.311472
 C        -0.705354         0.515226         0.820539
 C        -0.337322         1.742221         1.580925
 C        -1.786306         2.060405         1.223973
 C        -2.299488         3.365937         0.580601
 C        -1.370265         2.947922        -0.667484
 C        -1.510046         1.480922        -0.131966
 O        -2.657534         1.240588         1.915292
 C        -1.871865         0.054414         1.656579
 H         0.587510        -0.902242         1.090398
 H        -0.075797         1.702024         2.649761
 H         0.255881         2.525957         1.063484
 H        -3.375017         3.353064         0.209481
 H        -2.132724         4.474759         1.016350
 H        -1.787466         3.176443        -1.600333
 H        -0.378562         3.459852        -0.766686
 H        -2.188537         0.880721        -0.630345
 H        -1.540766        -0.428929         2.651040
 H        -2.425574        -0.767093         1.287987
