19
Iteration:  3790
 O         0.277061        -0.414764         0.369283
 C        -0.713181         0.580555         0.731800
 C        -0.439208         1.793019         1.695566
 C        -1.897489         2.057410         1.303746
 C        -2.088923         3.423464         0.530577
 C        -1.372058         2.960986        -0.685043
 C        -1.522878         1.455535        -0.165057
 O        -2.700504         1.097809         1.977428
 C        -1.864349        -0.044030         1.628444
 H         0.928992         0.158986        -0.194748
 H        -0.390598         1.805756         2.781932
 H         0.314185         2.525581         1.271323
 H        -3.067412         3.529069         0.310410
 H        -1.646340         4.327540         1.003025
 H        -1.857482         3.148255        -1.622338
 H        -0.318018         3.336264        -0.899641
 H        -2.378097         1.088773        -0.774201
 H        -1.534207        -0.599341         2.495749
 H        -2.518014        -0.714226         0.971312
