19
Iteration:  4791
 O         0.269700        -0.400910         0.315885
 C        -0.707262         0.553268         0.776037
 C        -0.303586         1.813695         1.579751
 C        -1.877309         2.160226         1.223943
 C        -2.289497         3.424482         0.539617
 C        -1.347350         2.906890        -0.611734
 C        -1.529660         1.404100        -0.186198
 O        -2.588234         1.183374         2.061380
 C        -1.929882        -0.011727         1.604225
 H         0.618792        -0.945550         1.161933
 H        -0.065853         1.568783         2.599275
 H         0.263169         2.557212         1.008754
 H        -3.209958         3.251990        -0.015895
 H        -2.176123         4.401893         0.966692
 H        -1.775718         3.184504        -1.641193
 H        -0.325514         3.167044        -0.468905
 H        -2.332350         0.826604        -0.682470
 H        -1.568264        -0.672805         2.414021
 H        -2.530198        -0.597033         0.878715
