19
Iteration:  3458
 O         0.319967        -0.320716         0.448083
 C        -0.684061         0.528219         0.720283
 C        -0.368214         1.695914         1.737367
 C        -1.821010         2.044861         1.222085
 C        -2.257778         3.388216         0.591445
 C        -1.282513         3.000727        -0.611104
 C        -1.524837         1.516069        -0.242664
 O        -2.674599         1.168070         1.884282
 C        -1.934767        -0.054297         1.598466
 H        -0.149748        -0.990244        -0.183837
 H        -0.403770         1.409811         2.770800
 H         0.442267         2.380997         1.324620
 H        -3.315984         3.373239         0.118947
 H        -2.031630         4.255743         1.205461
 H        -1.613465         3.503425        -1.535059
 H        -0.307317         3.402993        -0.418229
 H        -2.332439         1.087683        -0.958924
 H        -1.458755        -0.453585         2.424175
 H        -2.685205        -0.693776         1.110418
