19
Iteration:  2420
 O         0.320372        -0.374000         0.418622
 C        -0.636150         0.560698         0.764863
 C        -0.438287         1.680707         1.743493
 C        -1.861552         2.099773         1.194288
 C        -2.130293         3.436491         0.665591
 C        -1.376042         3.029652        -0.627530
 C        -1.486941         1.516643        -0.129182
 O        -2.735895         1.112402         1.839787
 C        -1.912329        -0.026665         1.444529
 H        -0.022090        -1.201254         0.532490
 H        -0.471391         1.346049         2.747257
 H         0.544983         2.288981         1.569171
 H        -3.216492         3.705090         0.604160
 H        -1.779768         4.279605         1.284333
 H        -1.610032         3.262977        -1.610435
 H        -0.406359         3.526839        -0.771419
 H        -2.352322         1.099290        -0.776484
 H        -1.576721        -0.598873         2.307630
 H        -2.375683        -0.819138         0.666885
