19
Iteration:  3533charge 0 multiplicity 1
 O         0.296717        -0.406662         0.356412
 C        -0.709507         0.548314         0.681531
 C        -0.462872         1.761881         1.721427
 C        -1.926759         2.077204         1.166320
 C        -2.162644         3.490399         0.607341
 C        -1.281323         2.983361        -0.631612
 C        -1.540678         1.428463        -0.156398
 O        -2.684821         1.116906         1.950070
 C        -1.901017        -0.068580         1.588850
 H         1.098647         0.120681         0.452525
 H        -0.198931         1.487778         2.743028
 H         0.373231         2.450940         1.337597
 H        -3.208795         3.618098         0.271018
 H        -1.727653         4.235313         1.182218
 H        -1.608306         3.434709        -1.598961
 H        -0.178577         3.157137        -0.667684
 H        -2.441952         1.065317        -0.713968
 H        -1.525982        -0.418897         2.571387
 H        -2.576346        -0.905856         1.149862
