19
Iteration:  4340
 O         0.339091        -0.303487         0.240199
 C        -0.684723         0.555362         0.766827
 C        -0.413072         1.749278         1.634696
 C        -1.882816         2.068964         1.224662
 C        -2.177990         3.371917         0.537773
 C        -1.377371         2.927410        -0.639171
 C        -1.533695         1.382852        -0.243644
 O        -2.666809         1.224348         2.041182
 C        -1.952549         0.009564         1.742951
 H         0.812362        -0.916222         0.902202
 H        -0.105084         1.589641         2.681882
 H         0.528043         2.237584         1.337294
 H        -3.132471         3.398127         0.200189
 H        -1.939039         4.401594         0.942977
 H        -1.801846         3.000662        -1.608569
 H        -0.352152         3.396920        -0.772465
 H        -2.367095         0.818302        -0.831990
 H        -1.634215        -0.452243         2.724945
 H        -2.515855        -0.717102         0.993281
