19
Iteration:  3961charge 0 multiplicity 1
 O         0.281219        -0.346161         0.319290
 C        -0.684047         0.602279         0.743501
 C        -0.356716         1.798374         1.685217
 C        -1.894989         2.073214         1.237527
 C        -2.239434         3.402862         0.586300
 C        -1.272933         2.918839        -0.588052
 C        -1.459861         1.511279        -0.195852
 O        -2.691367         1.132838         1.931418
 C        -1.890003        -0.052418         1.605402
 H        -0.168336        -1.187244         0.232764
 H        -0.142732         1.691055         2.710906
 H         0.247622         2.533909         1.140681
 H        -3.335868         3.374634         0.397635
 H        -1.981006         4.272588         1.060497
 H        -1.697712         2.893552        -1.541429
 H        -0.280133         3.336396        -0.410453
 H        -2.187090         1.002906        -0.767185
 H        -1.706722        -0.537479         2.632827
 H        -2.618902        -0.746211         1.005175
