19
Iteration:  2647charge 0 multiplicity 1
 O         0.303720        -0.330973         0.344822
 C        -0.697163         0.559180         0.794504
 C        -0.509216         1.815629         1.730322
 C        -1.900114         2.080033         1.220536
 C        -2.152017         3.475468         0.557248
 C        -1.109452         2.933479        -0.544092
 C        -1.610841         1.488884        -0.160737
 O        -2.692927         1.040165         1.958836
 C        -1.917088        -0.111975         1.503198
 H         0.218916        -0.281393        -0.708391
 H        -0.371974         1.655007         2.813048
 H         0.283780         2.491854         1.337344
 H        -3.214719         3.617335         0.060244
 H        -1.936850         4.401272         1.125957
 H        -1.374746         3.176833        -1.656526
 H        -0.138001         3.302148        -0.336219
 H        -2.356743         1.034747        -0.774310
 H        -1.524699        -0.581453         2.542533
 H        -2.621573        -0.788682         0.896305
