19
Iteration:  1848
 O         0.299247        -0.381428         0.458347
 C        -0.702643         0.565511         0.700612
 C        -0.456212         1.789109         1.688607
 C        -1.948285         2.058298         1.155027
 C        -2.166778         3.429075         0.684353
 C        -1.209059         2.974918        -0.528367
 C        -1.569299         1.479165        -0.219609
 O        -2.683419         1.124776         1.958016
 C        -1.898408        -0.030599         1.479131
 H         0.388412        -0.632062        -0.560876
 H        -0.375043         1.471284         2.752557
 H         0.467101         2.210342         1.230577
 H        -3.176198         3.404861         0.193051
 H        -1.824367         4.150845         1.366201
 H        -1.424891         3.234614        -1.539667
 H        -0.165426         3.386627        -0.339385
 H        -2.288459         1.167349        -1.019136
 H        -1.428584        -0.504889         2.316970
 H        -2.636151        -0.698748         0.793539
