19
Iteration:  1840
 O         0.320326        -0.367865         0.457824
 C        -0.733700         0.550165         0.731356
 C        -0.405059         1.754629         1.656272
 C        -1.850376         2.056548         1.137703
 C        -2.202139         3.448854         0.689843
 C        -1.196975         3.023062        -0.560358
 C        -1.547755         1.477327        -0.193700
 O        -2.724211         1.127181         1.899951
 C        -1.940185        -0.095570         1.521926
 H         0.267197        -0.497397        -0.568404
 H        -0.330714         1.674319         2.672827
 H         0.514666         2.373536         1.302676
 H        -3.313548         3.533817         0.382619
 H        -1.909562         4.230014         1.381587
 H        -1.541546         3.249695        -1.520884
 H        -0.148460         3.329071        -0.361086
 H        -2.471470         1.029806        -0.670045
 H        -1.582153        -0.672395         2.354153
 H        -2.522791        -0.712385         0.872845
