19
Iteration:   237
 O         0.216096        -0.369414         0.305906
 C        -0.611323         0.627315         0.803800
 C        -0.373803         1.795444         1.671263
 C        -1.916851         2.110771         1.255368
 C        -2.121205         3.441208         0.563681
 C        -1.348930         2.895095        -0.638195
 C        -1.516946         1.439849        -0.162235
 O        -2.745214         1.089347         1.965968
 C        -1.848831         0.002042         1.506642
 H         0.516808        -0.969509         1.007683
 H        -0.292894         1.518045         2.803614
 H         0.299276         2.411846         1.178653
 H        -3.219656         3.617533         0.463932
 H        -1.699662         4.288600         1.096611
 H        -1.884503         3.113487        -1.519516
 H        -0.254505         3.324616        -0.483921
 H        -2.314432         0.818861        -0.815880
 H        -1.392075        -0.410384         2.403650
 H        -2.456867        -0.702264         0.869077
