19
Iteration:  4408charge 0 multiplicity 1
 O         0.279896        -0.377553         0.310469
 C        -0.741296         0.492082         0.795089
 C        -0.424123         1.784142         1.584455
 C        -1.884588         2.081894         1.148022
 C        -2.227384         3.401939         0.595037
 C        -1.360878         2.930947        -0.647296
 C        -1.529111         1.427676        -0.217299
 O        -2.643874         1.215227         1.989772
 C        -1.781794         0.008479         1.678468
 H         0.673541        -0.816924         1.039556
 H        -0.263058         1.790031         2.730761
 H         0.427662         2.261472         1.064295
 H        -3.251397         3.428380         0.386678
 H        -1.924921         4.178158         1.274613
 H        -1.787376         3.343610        -1.570497
 H        -0.324525         3.417606        -0.721411
 H        -2.302756         0.958564        -0.908485
 H        -1.505645        -0.438893         2.712644
 H        -2.543679        -0.780830         1.306296
