19
Iteration:  4839
 O         0.269241        -0.380197         0.277012
 C        -0.628922         0.573836         0.718376
 C        -0.306248         1.758591         1.652558
 C        -1.931910         2.098247         1.225582
 C        -2.176657         3.503599         0.567883
 C        -1.337336         2.873628        -0.707960
 C        -1.577333         1.411741        -0.173921
 O        -2.721932         1.146015         1.965803
 C        -1.863268         0.013178         1.710625
 H         0.740577        -0.754546         0.942161
 H        -0.355830         1.753874         2.758986
 H         0.336047         2.465779         1.148739
 H        -3.301837         3.452486         0.384853
 H        -1.703627         4.375524         1.231125
 H        -1.972223         2.919398        -1.486142
 H        -0.383214         3.391516        -0.857616
 H        -2.270503         0.787000        -0.697043
 H        -1.513322        -0.345825         2.733225
 H        -2.489343        -0.822481         1.392461
