19
Iteration:   172
 O         0.310714        -0.366447         0.310392
 C        -0.683678         0.593017         0.656261
 C        -0.387045         1.833444         1.589801
 C        -1.940921         2.041169         1.239644
 C        -2.180312         3.354441         0.574084
 C        -1.214306         2.934492        -0.564363
 C        -1.577236         1.483786        -0.226875
 O        -2.674952         1.190383         2.053916
 C        -1.976139        -0.057326         1.594507
 H         0.679172        -0.586416         1.104457
 H        -0.250644         1.443859         2.724917
 H         0.309342         2.394495         1.119427
 H        -3.194256         3.369030         0.096932
 H        -1.951115         4.244572         1.169120
 H        -1.677876         3.143802        -1.483869
 H        -0.070612         3.255630        -0.473876
 H        -2.337428         1.002880        -0.935620
 H        -1.570246        -0.398532         2.635357
 H        -2.609672        -0.975779         1.215484
