19
Iteration:  1987
 O         0.272259        -0.423122         0.375866
 C        -0.681929         0.554658         0.713292
 C        -0.428568         1.707633         1.694506
 C        -1.827539         2.096964         1.231626
 C        -2.210602         3.413180         0.679568
 C        -1.313535         2.964578        -0.569788
 C        -1.499372         1.481529        -0.205628
 O        -2.742786         1.187257         1.883227
 C        -1.890684        -0.040930         1.493321
 H         1.168626         0.024753         0.387150
 H        -0.513743         1.477097         2.815206
 H         0.429680         2.409393         1.504021
 H        -3.232533         3.292163         0.296112
 H        -1.867455         4.381322         1.267299
 H        -1.737727         3.168748        -1.579696
 H        -0.256686         3.415566        -0.520809
 H        -2.216804         0.958163        -0.823620
 H        -1.469667        -0.527049         2.425327
 H        -2.569730        -0.692878         0.999986
