19
Iteration:  3907charge 0 multiplicity 1
 O         0.384125        -0.239856         0.382225
 C        -0.717314         0.520881         0.730441
 C        -0.421829         1.723268         1.596413
 C        -1.907284         2.070343         1.172098
 C        -2.094908         3.491982         0.636919
 C        -1.300525         2.990589        -0.582815
 C        -1.589428         1.394108        -0.149109
 O        -2.736974         1.120922         1.944190
 C        -1.895807        -0.071567         1.579126
 H         0.176775        -1.167001         0.657330
 H        -0.183184         1.687158         2.615209
 H         0.328362         2.250590         0.983103
 H        -3.157038         3.649882         0.194098
 H        -1.740420         4.286792         1.256292
 H        -1.798710         3.140058        -1.477220
 H        -0.266175         3.335115        -0.862111
 H        -2.405678         0.832121        -0.622864
 H        -1.600625        -0.521890         2.530609
 H        -2.595197        -0.750413         1.069275
