19
Iteration:  1505charge 0 multiplicity 1
 O         0.199611        -0.455667         0.261223
 C        -0.624331         0.547882         0.763210
 C        -0.466471         1.784008         1.768736
 C        -1.824209         2.138063         1.208856
 C        -2.188922         3.489626         0.597772
 C        -1.321968         2.959225        -0.634989
 C        -1.477505         1.500579        -0.178126
 O        -2.680817         1.123423         1.928959
 C        -1.890222        -0.145720         1.605745
 H         1.064769        -0.218541         0.388694
 H        -0.555767         1.720001         2.832234
 H         0.567626         2.367261         1.534770
 H        -3.215060         3.612220         0.422505
 H        -1.910641         4.473548         1.172907
 H        -2.023723         3.078553        -1.396960
 H        -0.366459         3.422543        -0.864488
 H        -2.209348         1.025858        -0.755279
 H        -1.580881        -0.607868         2.485910
 H        -2.565343        -0.580959         0.920798
