19
Iteration:  4969charge 0 multiplicity 1
 O         0.229820        -0.386234         0.336567
 C        -0.696439         0.521560         0.758071
 C        -0.417400         1.823278         1.629600
 C        -1.904663         2.071075         1.139554
 C        -2.205458         3.462745         0.568124
 C        -1.348675         2.928159        -0.679256
 C        -1.579266         1.460057        -0.163617
 O        -2.604926         1.142026         1.967163
 C        -1.821091        -0.018500         1.694811
 H         0.445264        -1.098185         1.079594
 H        -0.251313         1.602018         2.690567
 H         0.238673         2.642206         1.263098
 H        -3.231342         3.811942         0.304116
 H        -1.607754         4.319754         1.077426
 H        -1.769487         3.082450        -1.649466
 H        -0.237071         3.082720        -0.793200
 H        -2.185063         0.804976        -0.737477
 H        -1.359176        -0.302524         2.735961
 H        -2.384408        -0.748854         1.159607
