19
Iteration:   705
 O         0.234009        -0.322966         0.205850
 C        -0.684812         0.484510         0.845560
 C        -0.356301         1.822098         1.648595
 C        -1.802517         2.081443         1.243083
 C        -2.181582         3.448566         0.601289
 C        -1.333251         2.970783        -0.592415
 C        -1.459813         1.453921        -0.083701
 O        -2.700257         1.116261         1.838749
 C        -1.977083        -0.054348         1.617349
 H         0.777081        -0.716373         1.018085
 H        -0.150638         1.671872         2.808370
 H         0.365924         2.574292         1.311032
 H        -3.242969         3.196619         0.372368
 H        -2.076953         4.489947         0.964460
 H        -1.898340         3.027734        -1.553906
 H        -0.249909         3.469493        -0.555386
 H        -2.278356         0.876746        -0.625273
 H        -1.743035        -0.664055         2.582030
 H        -2.514459        -0.831735         0.959968
