19
Iteration:  2047
 O         0.224843        -0.390184         0.459136
 C        -0.674731         0.615738         0.697101
 C        -0.446226         1.851764         1.655442
 C        -1.927073         2.042908         1.209862
 C        -2.149800         3.435708         0.646212
 C        -1.211593         2.937080        -0.519426
 C        -1.593816         1.496282        -0.210798
 O        -2.618175         1.068442         1.892087
 C        -1.900475        -0.087231         1.506995
 H         0.618929        -0.462620        -0.339868
 H        -0.448536         1.520176         2.689057
 H         0.121124         2.786056         1.573753
 H        -3.137461         3.840415         0.319733
 H        -1.831495         4.206128         1.236560
 H        -1.431715         3.290100        -1.561601
 H        -0.183039         3.131904        -0.240413
 H        -2.348523         0.969799        -0.880795
 H        -1.609794        -0.645661         2.351294
 H        -2.627382        -0.731886         0.774643
