19
Iteration:  2167charge 0 multiplicity 1
 O         0.293862        -0.394320         0.486788
 C        -0.723984         0.496261         0.671936
 C        -0.413562         1.763608         1.572081
 C        -1.880083         2.088955         1.160511
 C        -2.184889         3.432263         0.700573
 C        -1.231759         2.941041        -0.471400
 C        -1.533283         1.470891        -0.220471
 O        -2.692973         1.146831         1.898168
 C        -1.910888        -0.051342         1.493181
 H         0.854433         0.077729        -0.287795
 H        -0.402389         1.571171         2.694842
 H         0.396561         2.378288         1.402495
 H        -3.240950         3.736851         0.298593
 H        -2.016181         4.217393         1.375513
 H        -1.685131         3.270812        -1.422132
 H        -0.276963         3.235639        -0.284967
 H        -2.468469         1.207707        -0.776798
 H        -1.569569        -0.462422         2.314677
 H        -2.678579        -0.713181         1.013570
