19
Iteration:  2326
 O         0.264669        -0.440770         0.391012
 C        -0.683918         0.555489         0.863002
 C        -0.403240         1.784457         1.750415
 C        -1.915480         2.110203         1.167763
 C        -2.142585         3.494270         0.661008
 C        -1.305651         3.008999        -0.612494
 C        -1.523419         1.510931        -0.146774
 O        -2.682407         1.066922         1.850570
 C        -1.930658        -0.140628         1.471983
 H         0.625386         0.148922        -0.421618
 H        -0.213244         1.536965         2.865448
 H         0.399631         2.418846         1.283503
 H        -3.161518         3.656090         0.389468
 H        -1.830590         4.382654         1.377410
 H        -1.630593         3.314719        -1.644357
 H        -0.186138         3.361410        -0.727155
 H        -2.315135         1.037602        -0.714487
 H        -1.722369        -0.728136         2.417419
 H        -2.441181        -0.772574         0.817144
