19
Iteration:  3524charge 0 multiplicity 1
 O         0.286240        -0.387640         0.380574
 C        -0.713084         0.598236         0.740124
 C        -0.474408         1.735809         1.661502
 C        -1.968217         2.083072         1.228675
 C        -2.101258         3.475039         0.619045
 C        -1.272639         2.923526        -0.616686
 C        -1.556849         1.514496        -0.201918
 O        -2.652913         1.108481         1.925827
 C        -1.889829        -0.082410         1.601224
 H         1.125809         0.043531         0.135667
 H        -0.545829         1.468885         2.689920
 H         0.316544         2.437955         1.349385
 H        -3.100801         3.804433         0.218988
 H        -1.865907         4.250656         1.255824
 H        -1.736123         2.898401        -1.620663
 H        -0.275815         3.220380        -0.615219
 H        -2.355334         0.913034        -0.789614
 H        -1.437246        -0.511626         2.424277
 H        -2.561611        -0.767131         1.030228
