19
Iteration:  1443charge 0 multiplicity 1
 O         0.277348        -0.346753         0.289511
 C        -0.709469         0.530135         0.723593
 C        -0.521992         1.778737         1.654821
 C        -1.927118         2.032488         1.177304
 C        -2.161218         3.437016         0.591793
 C        -1.250482         3.001914        -0.622668
 C        -1.510306         1.472974        -0.174220
 O        -2.609540         1.134226         1.997876
 C        -1.901889        -0.062597         1.626698
 H         0.611964        -0.934422         0.898176
 H        -0.470625         1.692930         2.760453
 H         0.274564         2.402441         1.317452
 H        -3.200701         3.744090         0.382771
 H        -1.632501         4.176054         1.245985
 H        -1.749816         3.246075        -1.546502
 H        -0.192106         3.523325        -0.637675
 H        -2.333174         1.037733        -0.852567
 H        -1.610168        -0.796168         2.431949
 H        -2.607334        -0.710809         1.031735
