19
Iteration:  1339
 O         0.228047        -0.392313         0.269545
 C        -0.736277         0.532201         0.816991
 C        -0.452050         1.811722         1.647442
 C        -1.906172         2.120352         1.232088
 C        -2.143029         3.505174         0.551393
 C        -1.232695         2.967367        -0.563342
 C        -1.586511         1.463298        -0.167806
 O        -2.646231         1.041563         1.941719
 C        -1.873262        -0.072256         1.578842
 H         1.014044        -0.558535         0.931266
 H        -0.201985         1.639652         2.756356
 H         0.295681         2.532873         1.248649
 H        -3.260048         3.545286         0.222582
 H        -1.961556         4.564608         1.077094
 H        -1.576767         3.299582        -1.636998
 H        -0.227290         3.182600        -0.410855
 H        -2.376407         0.966930        -0.688974
 H        -1.608436        -0.517472         2.511506
 H        -2.267476        -0.714976         0.819955
