19
Iteration:  4754charge 0 multiplicity 1
 O         0.266460        -0.339935         0.238676
 C        -0.696922         0.534329         0.800712
 C        -0.417607         1.796147         1.650998
 C        -1.845587         2.112153         1.235458
 C        -2.170793         3.484800         0.548771
 C        -1.374039         2.854832        -0.675065
 C        -1.552642         1.402836        -0.206767
 O        -2.615609         1.156132         1.928240
 C        -1.858250        -0.016983         1.734007
 H         0.690649        -1.036131         0.943192
 H        -0.435323         1.766017         2.779954
 H         0.357795         2.542974         1.478900
 H        -3.188213         3.471564         0.219478
 H        -2.045394         4.362233         1.162438
 H        -1.916592         3.260247        -1.533154
 H        -0.252909         3.252893        -0.873719
 H        -2.481755         0.799873        -0.602319
 H        -1.573474        -0.424292         2.709740
 H        -2.589514        -0.801309         1.339324
