19
Iteration:  1105
 O         0.218793        -0.383491         0.218397
 C        -0.657492         0.568650         0.684735
 C        -0.387639         1.777460         1.719382
 C        -1.797757         2.126227         1.325960
 C        -2.208860         3.430181         0.611181
 C        -1.305972         2.898427        -0.655039
 C        -1.475958         1.468529        -0.169307
 O        -2.738741         1.132376         1.918498
 C        -1.900269        -0.028037         1.614540
 H         0.763553        -0.617529         1.036368
 H        -0.466825         1.468286         2.791388
 H         0.469904         2.594084         1.710184
 H        -3.393694         3.324069         0.427583
 H        -2.054358         4.500751         0.983233
 H        -1.766814         3.074001        -1.541787
 H        -0.175611         3.380931        -0.565658
 H        -2.319317         0.913473        -0.719539
 H        -1.556876        -0.563507         2.541398
 H        -2.391006        -0.685750         0.920769
