19
Iteration:  2044charge 0 multiplicity 1
 O         0.224070        -0.402948         0.458293
 C        -0.684774         0.631630         0.683888
 C        -0.431016         1.833654         1.688921
 C        -1.918613         2.044429         1.236633
 C        -2.165876         3.423585         0.640939
 C        -1.240845         2.918703        -0.518010
 C        -1.572888         1.516355        -0.202512
 O        -2.622518         1.065768         1.873746
 C        -1.910513        -0.064497         1.494580
 H         0.653373        -0.405418        -0.445504
 H        -0.399713         1.491076         2.704542
 H         0.075742         2.878721         1.491371
 H        -3.139602         3.852835         0.200103
 H        -1.787312         4.318033         1.291336
 H        -1.409492         3.231634        -1.497437
 H        -0.073332         3.091790        -0.408044
 H        -2.264347         0.949042        -0.790766
 H        -1.644358        -0.649120         2.325778
 H        -2.559692        -0.747464         0.890161
