19
Iteration:  1280
 O         0.344699        -0.317595         0.317641
 C        -0.707061         0.508993         0.768617
 C        -0.403230         1.731804         1.661496
 C        -1.921636         2.080807         1.175339
 C        -2.167463         3.475057         0.654525
 C        -1.315856         2.942768        -0.650970
 C        -1.545290         1.466750        -0.154069
 O        -2.701240         1.188145         1.962658
 C        -1.904854        -0.105876         1.514323
 H         0.560804        -0.705791         1.166019
 H        -0.284016         1.515553         2.816985
 H         0.420093         2.374561         1.281818
 H        -3.215332         3.733211         0.422032
 H        -1.724881         4.191953         1.285599
 H        -1.830086         3.072311        -1.536795
 H        -0.215625         3.326923        -0.785579
 H        -2.369055         1.073705        -0.819189
 H        -1.621424        -0.588729         2.496625
 H        -2.447453        -0.854385         0.912783
