19
Iteration:  4883
 O         0.270746        -0.310516         0.257892
 C        -0.754156         0.541140         0.763148
 C        -0.405331         1.867589         1.621586
 C        -1.899595         2.047187         1.175380
 C        -2.165056         3.477881         0.537078
 C        -1.283303         2.835013        -0.707952
 C        -1.587562         1.448179        -0.140590
 O        -2.655313         1.155622         2.087915
 C        -1.871115        -0.061305         1.663320
 H         0.763362        -0.550306         1.043867
 H        -0.353782         1.471006         2.646865
 H         0.469391         2.414765         1.241492
 H        -3.196355         3.684486         0.126461
 H        -1.642263         4.309701         1.170297
 H        -1.810736         2.892230        -1.583365
 H        -0.206065         2.978157        -0.763869
 H        -2.290571         0.921239        -0.723168
 H        -1.455402        -0.517510         2.610911
 H        -2.551006        -0.720488         1.113669
