19
Iteration:  3406
 O         0.306867        -0.303546         0.394978
 C        -0.686265         0.579976         0.777580
 C        -0.442609         1.798693         1.670133
 C        -1.881733         2.034271         1.198758
 C        -2.117454         3.467210         0.641434
 C        -1.289203         2.965559        -0.658949
 C        -1.505649         1.436062        -0.173563
 O        -2.709031         1.084871         1.914969
 C        -1.899604        -0.055710         1.526915
 H        -0.187801        -1.213827         0.594126
 H        -0.406147         1.390322         2.667268
 H         0.316678         2.589375         1.363572
 H        -3.182661         3.806493         0.383310
 H        -1.835580         4.291939         1.391054
 H        -1.704674         3.114002        -1.729700
 H        -0.349322         3.381513        -0.569569
 H        -2.339767         1.046937        -0.762664
 H        -1.553637        -0.636260         2.455651
 H        -2.462339        -0.713394         0.821189
