19
Iteration:  4554
 O         0.264774        -0.423238         0.271189
 C        -0.653635         0.604956         0.730918
 C        -0.392267         1.835987         1.701063
 C        -1.915844         2.151394         1.191541
 C        -2.215722         3.531117         0.536277
 C        -1.302615         2.841020        -0.703893
 C        -1.530741         1.379465        -0.143040
 O        -2.602770         1.149460         2.076813
 C        -1.934287        -0.054635         1.597645
 H         0.519380        -0.883579         1.133095
 H        -0.234797         1.682906         2.763812
 H         0.402397         2.574763         1.334825
 H        -3.322139         3.491114         0.458779
 H        -1.990539         4.286850         1.069331
 H        -2.078630         2.928070        -1.563753
 H        -0.461029         3.460387        -1.058956
 H        -2.237925         0.891501        -0.770076
 H        -1.382364        -0.524691         2.511966
 H        -2.477326        -0.729158         0.986684
