19
Iteration:  3604charge 0 multiplicity 1
 O         0.303920        -0.358871         0.316421
 C        -0.668889         0.545393         0.795230
 C        -0.428602         1.785301         1.721054
 C        -1.896627         2.085066         1.172601
 C        -2.236232         3.481296         0.566951
 C        -1.275986         2.980617        -0.655461
 C        -1.562074         1.454835        -0.130941
 O        -2.596829         1.106391         1.964478
 C        -1.912195        -0.066308         1.564377
 H        -0.005647        -1.263255         0.638266
 H        -0.259603         1.680053         2.816819
 H         0.156839         2.608428         1.396055
 H        -3.175604         3.588748         0.117791
 H        -1.820994         4.295429         1.210759
 H        -1.708628         3.204058        -1.614510
 H        -0.296794         3.427667        -0.790026
 H        -2.358417         0.945267        -0.681951
 H        -1.514352        -0.662176         2.354626
 H        -2.572491        -0.708818         1.013805
