19
Iteration:  2247charge 0 multiplicity 1
 O         0.267424        -0.407792         0.412189
 C        -0.686662         0.540544         0.686682
 C        -0.376195         1.731618         1.630988
 C        -1.917271         2.094879         1.236219
 C        -2.197801         3.434257         0.613980
 C        -1.173874         3.006794        -0.521557
 C        -1.582882         1.505807        -0.190689
 O        -2.745681         1.089613         1.940166
 C        -1.935632        -0.052547         1.527579
 H         1.079013         0.155054         0.077308
 H        -0.169286         1.642383         2.707184
 H         0.405847         2.441398         1.077189
 H        -3.171048         3.331397         0.166564
 H        -1.964968         4.205708         1.433914
 H        -1.522815         3.273066        -1.531325
 H        -0.030735         3.287059        -0.389942
 H        -2.384181         1.128500        -0.922153
 H        -1.566782        -0.539420         2.367704
 H        -2.602893        -0.709127         0.943975
