19
Iteration:  3757
 O         0.272177        -0.432391         0.350980
 C        -0.745913         0.574698         0.731333
 C        -0.378149         1.826639         1.612281
 C        -1.917999         2.062443         1.215318
 C        -2.174579         3.427409         0.580436
 C        -1.320734         2.917468        -0.586045
 C        -1.562613         1.472977        -0.175883
 O        -2.638470         1.105794         1.919744
 C        -1.868143        -0.026638         1.636407
 H         1.094987        -0.150979         0.620204
 H        -0.555106         1.815463         2.686377
 H         0.340212         2.624992         1.235750
 H        -3.130199         3.697967         0.391870
 H        -1.777985         4.277115         1.199101
 H        -1.772478         3.061638        -1.548790
 H        -0.235747         3.302305        -0.633022
 H        -2.500394         1.020638        -0.620472
 H        -1.408476        -0.495662         2.525402
 H        -2.594342        -0.728090         1.004596
