19
Iteration:  4350
 O         0.295978        -0.280238         0.251026
 C        -0.678254         0.514360         0.755919
 C        -0.373084         1.793123         1.663767
 C        -1.844355         2.095226         1.219483
 C        -2.233144         3.434990         0.521134
 C        -1.359517         2.853262        -0.716228
 C        -1.514933         1.432370        -0.143107
 O        -2.613439         1.185253         2.014042
 C        -1.943159        -0.042804         1.707380
 H         0.461276        -0.995996         1.005715
 H        -0.390067         1.515310         2.702209
 H         0.403492         2.459346         1.235626
 H        -3.285962         3.500707         0.330571
 H        -1.905242         4.376360         1.118549
 H        -1.850819         2.989139        -1.661405
 H        -0.384538         3.334510        -0.669988
 H        -2.204380         0.939351        -0.897710
 H        -1.663449        -0.529090         2.675114
 H        -2.753334        -0.761708         1.177667
