19
Iteration:  1504
 O         0.200273        -0.449793         0.259042
 C        -0.627589         0.547539         0.764702
 C        -0.465125         1.774846         1.772640
 C        -1.821200         2.130409         1.220548
 C        -2.189982         3.491275         0.601088
 C        -1.313471         2.955823        -0.636568
 C        -1.481636         1.499045        -0.183112
 O        -2.684887         1.130585         1.928631
 C        -1.887968        -0.139940         1.599292
 H         1.089973        -0.258228         0.398602
 H        -0.591091         1.719923         2.848033
 H         0.573661         2.370088         1.486549
 H        -3.221419         3.588396         0.410612
 H        -1.932954         4.453630         1.149666
 H        -2.036559         3.113003        -1.421955
 H        -0.393541         3.423907        -0.870164
 H        -2.211654         1.019569        -0.740231
 H        -1.540278        -0.572382         2.525627
 H        -2.556203        -0.597469         0.906111
