19
Iteration:  3295
 O         0.210434        -0.424929         0.395247
 C        -0.695793         0.552446         0.732099
 C        -0.391353         1.760570         1.674003
 C        -1.847916         2.085854         1.207220
 C        -2.218680         3.460337         0.599497
 C        -1.297095         3.004645        -0.593512
 C        -1.509583         1.498039        -0.124743
 O        -2.679909         1.112312         1.854331
 C        -1.897941        -0.054183         1.607429
 H         1.119176        -0.246444         0.518944
 H        -0.218799         1.503910         2.724402
 H         0.361505         2.428105         1.152432
 H        -3.217142         3.154851         0.248191
 H        -1.993666         4.379210         1.181640
 H        -1.609509         2.936040        -1.691588
 H        -0.301841         3.362641        -0.633290
 H        -2.325289         1.093073        -0.772416
 H        -1.581925        -0.396300         2.589311
 H        -2.442191        -0.639706         0.828713
