19
Iteration:  3416charge 0 multiplicity 1
 O         0.308703        -0.369214         0.394836
 C        -0.699593         0.624955         0.777356
 C        -0.383795         1.805700         1.733998
 C        -1.985141         2.052752         1.161410
 C        -2.140353         3.456152         0.612097
 C        -1.278905         2.970827        -0.573646
 C        -1.541129         1.525367        -0.215344
 O        -2.666138         1.075941         1.922531
 C        -1.915185        -0.077895         1.520823
 H         0.036143        -1.344017         0.477620
 H        -0.178870         1.760301         2.825965
 H         0.349578         2.512512         1.200045
 H        -3.270808         3.497245         0.311349
 H        -1.624106         4.316565         1.157676
 H        -1.703682         3.204196        -1.620043
 H        -0.279853         3.189436        -0.673543
 H        -2.206178         0.890553        -0.853817
 H        -1.628517        -0.613289         2.452539
 H        -2.460183        -0.742785         0.808902
