19
Iteration:  3744charge 0 multiplicity 1
 O         0.279416        -0.430857         0.330376
 C        -0.676315         0.514470         0.772029
 C        -0.477953         1.790235         1.612379
 C        -1.878329         2.074875         1.185101
 C        -2.198359         3.426662         0.636783
 C        -1.316644         3.013940        -0.633693
 C        -1.541227         1.415080        -0.229580
 O        -2.686301         1.195684         1.993408
 C        -1.875306        -0.064117         1.645095
 H         1.187237        -0.071150         0.725882
 H        -0.006338         1.604572         2.546620
 H         0.254764         2.386930         1.083113
 H        -3.219755         3.364489         0.274246
 H        -1.893243         4.279779         1.155366
 H        -1.695138         3.362257        -1.556587
 H        -0.297977         3.425536        -0.601086
 H        -2.235220         0.923227        -0.987486
 H        -1.552291        -0.486905         2.555612
 H        -2.484851        -0.815386         1.129741
