19
Iteration:  3455charge 0 multiplicity 1
 O         0.315999        -0.330947         0.443904
 C        -0.688235         0.536781         0.710129
 C        -0.359764         1.705602         1.733413
 C        -1.829473         2.054304         1.202377
 C        -2.264759         3.367053         0.591881
 C        -1.275111         2.998384        -0.613520
 C        -1.531899         1.540064        -0.242045
 O        -2.661663         1.155331         1.885648
 C        -1.947220        -0.051761         1.603278
 H        -0.086480        -0.967512        -0.066730
 H        -0.399224         1.406970         2.793012
 H         0.385103         2.392172         1.348841
 H        -3.281146         3.406111         0.261657
 H        -2.051641         4.268674         1.121235
 H        -1.630487         3.435393        -1.517919
 H        -0.211740         3.398338        -0.345737
 H        -2.281342         1.140887        -0.946141
 H        -1.473592        -0.502960         2.524516
 H        -2.690415        -0.703218         1.092139
