19
Iteration:  1893
 O         0.309692        -0.362418         0.359367
 C        -0.724175         0.500993         0.822509
 C        -0.417371         1.713705         1.725754
 C        -1.905944         2.085195         1.263547
 C        -2.179834         3.452471         0.593242
 C        -1.253813         2.996303        -0.569502
 C        -1.500084         1.532779        -0.082413
 O        -2.684187         1.124010         1.804962
 C        -1.931167        -0.095419         1.547234
 H         0.204469        -0.202069        -0.652875
 H        -0.284089         1.754168         2.752691
 H         0.325218         2.417954         1.205367
 H        -3.183838         3.477686         0.154421
 H        -1.795684         4.202571         1.132320
 H        -1.689568         3.213630        -1.482320
 H        -0.163982         3.306563        -0.604374
 H        -2.296902         0.987353        -0.660649
 H        -1.639240        -0.527541         2.475994
 H        -2.549942        -0.782955         0.815051
