19
Iteration:  1372charge 0 multiplicity 1
 O         0.281220        -0.362142         0.282558
 C        -0.738492         0.558119         0.737249
 C        -0.456535         1.695095         1.605626
 C        -1.929274         2.029401         1.173501
 C        -2.191218         3.399045         0.614146
 C        -1.251440         3.012582        -0.528127
 C        -1.488870         1.430924        -0.237744
 O        -2.655144         1.187402         2.011164
 C        -1.881047         0.016409         1.604613
 H         0.697788        -0.821522         0.984058
 H        -0.363551         1.421612         2.722199
 H         0.326664         2.480580         1.303968
 H        -3.266295         3.425884         0.187301
 H        -1.925246         4.365566         1.263464
 H        -1.744679         3.283016        -1.553074
 H        -0.270317         3.402094        -0.514685
 H        -2.156001         0.953053        -0.915147
 H        -1.646479        -0.454047         2.536925
 H        -2.442706        -0.689773         1.012240
