19
Iteration:  1815
 O         0.378064        -0.394622         0.373223
 C        -0.695495         0.524450         0.777209
 C        -0.409379         1.690162         1.764280
 C        -1.844209         2.066828         1.255075
 C        -2.117893         3.482592         0.632172
 C        -1.340453         3.027769        -0.604123
 C        -1.458552         1.539018        -0.114394
 O        -2.790604         1.118268         1.785929
 C        -1.967694        -0.052697         1.545027
 H         0.098007        -0.590269        -0.535294
 H         0.030692         1.664100         2.831471
 H         0.467621         2.157502         1.258598
 H        -3.266613         3.574627         0.453037
 H        -1.897247         4.404229         1.142647
 H        -1.964898         3.004292        -1.496473
 H        -0.379291         3.612651        -0.602447
 H        -2.221475         0.981839        -0.744429
 H        -1.631510        -0.563829         2.442966
 H        -2.642894        -0.892852         1.005448
