19
Iteration:  2100
 O         0.254936        -0.417420         0.317120
 C        -0.657685         0.563515         0.816697
 C        -0.359950         1.712462         1.786066
 C        -1.775182         2.079538         1.212322
 C        -2.173145         3.389971         0.671273
 C        -1.354347         2.991551        -0.618098
 C        -1.499411         1.471017        -0.171293
 O        -2.786547         1.165151         1.779458
 C        -1.931903        -0.020120         1.545197
 H         1.019349         0.020500         0.104827
 H        -0.266896         1.604399         2.862669
 H         0.459047         2.423518         1.535956
 H        -3.309947         3.499517         0.431992
 H        -1.855333         4.279371         1.236013
 H        -1.775046         3.237448        -1.591406
 H        -0.319424         3.202617        -0.443296
 H        -2.388203         0.936347        -0.513951
 H        -1.635307        -0.413465         2.406706
 H        -2.423505        -0.745594         0.875168
