19
Iteration:  1816
 O         0.374110        -0.391393         0.372403
 C        -0.691180         0.514921         0.783818
 C        -0.413057         1.692673         1.761479
 C        -1.846967         2.069125         1.264586
 C        -2.114958         3.488131         0.631335
 C        -1.348185         3.028495        -0.601888
 C        -1.459905         1.538175        -0.117558
 O        -2.779808         1.115980         1.780589
 C        -1.974693        -0.060576         1.549345
 H         0.125569        -0.572288        -0.494379
 H         0.035005         1.650796         2.770856
 H         0.482663         2.172616         1.224324
 H        -3.278435         3.543063         0.416767
 H        -1.877412         4.395539         1.128502
 H        -1.928661         3.034438        -1.482383
 H        -0.374761         3.612621        -0.578041
 H        -2.225782         0.994899        -0.777334
 H        -1.663804        -0.543498         2.444599
 H        -2.628641        -0.865296         1.011273
