19
Iteration:  3836charge 0 multiplicity 1
 O         0.299342        -0.414592         0.424455
 C        -0.687213         0.608712         0.741167
 C        -0.380563         1.795875         1.600357
 C        -1.867285         2.058806         1.211277
 C        -2.234855         3.386614         0.552073
 C        -1.287764         2.968598        -0.581474
 C        -1.543150         1.477005        -0.159358
 O        -2.680291         1.153244         1.988701
 C        -1.924435        -0.044896         1.578762
 H         0.390094        -0.723481        -0.463684
 H        -0.071986         1.544810         2.671309
 H         0.222551         2.600890         1.174647
 H        -3.217973         3.243443         0.263216
 H        -1.989290         4.309367         1.136320
 H        -1.549057         3.378511        -1.631181
 H        -0.267269         3.349792        -0.564019
 H        -2.403190         1.099753        -0.688442
 H        -1.351528        -0.495004         2.471295
 H        -2.580023        -0.867395         1.077251
