19
Iteration:  1841charge 0 multiplicity 1
 O         0.318160        -0.370255         0.456696
 C        -0.729632         0.553430         0.724481
 C        -0.410108         1.762975         1.661799
 C        -1.860715         2.054836         1.133317
 C        -2.201332         3.447026         0.690385
 C        -1.193276         3.017640        -0.554617
 C        -1.554570         1.475868        -0.195548
 O        -2.721742         1.127110         1.908929
 C        -1.938662        -0.090238         1.512340
 H         0.278147        -0.503385        -0.528474
 H        -0.333238         1.650964         2.691459
 H         0.518254         2.331638         1.295933
 H        -3.285772         3.490092         0.354767
 H        -1.871009         4.221767         1.411006
 H        -1.532311         3.240670        -1.557254
 H        -0.172744         3.338655        -0.355289
 H        -2.456145         1.052524        -0.708917
 H        -1.537900        -0.654285         2.362185
 H        -2.506231        -0.669225         0.886005
