19
Iteration:  1384
 O         0.297264        -0.345263         0.249305
 C        -0.661155         0.496421         0.783070
 C        -0.364928         1.751732         1.687280
 C        -1.838874         2.111559         1.224497
 C        -2.216610         3.470178         0.640743
 C        -1.309627         3.026287        -0.610889
 C        -1.500003         1.412032        -0.225724
 O        -2.706152         1.133619         1.918466
 C        -1.983777        -0.093895         1.650048
 H         0.561972        -0.966606         1.053923
 H        -0.232945         1.798058         2.774438
 H         0.435627         2.341280         1.052945
 H        -3.288149         3.558957         0.289957
 H        -1.915568         4.515952         1.168517
 H        -1.706934         3.287969        -1.657651
 H        -0.296923         3.407413        -0.547598
 H        -2.246697         0.913465        -0.812307
 H        -1.580600        -0.631928         2.479249
 H        -2.703209        -0.662436         1.082968
