19
Iteration:  4463charge 0 multiplicity 1
 O         0.185929        -0.324946         0.294954
 C        -0.665187         0.594004         0.773795
 C        -0.451796         1.855996         1.669379
 C        -1.864832         2.110150         1.189516
 C        -2.129725         3.472181         0.514210
 C        -1.322388         2.807216        -0.648524
 C        -1.582818         1.364928        -0.114568
 O        -2.589186         1.144752         2.007230
 C        -1.862800        -0.088785         1.586689
 H         0.988450        -0.304372         0.691927
 H        -0.226354         1.683695         2.776360
 H         0.266309         2.585535         1.296075
 H        -3.173468         3.542256         0.295172
 H        -1.874662         4.365117         1.080971
 H        -1.944607         3.001132        -1.548441
 H        -0.302199         3.214462        -0.778497
 H        -2.500174         0.878145        -0.510869
 H        -1.675229        -0.546683         2.641217
 H        -2.566432        -0.657828         0.934299
