19
Iteration:  2997
 O         0.308497        -0.424389         0.514780
 C        -0.715005         0.568647         0.747581
 C        -0.386345         1.708566         1.686715
 C        -1.863019         2.125801         1.245722
 C        -2.186482         3.491360         0.606718
 C        -1.348364         3.023925        -0.631245
 C        -1.455499         1.513041        -0.134654
 O        -2.701099         1.042113         1.875883
 C        -1.916295        -0.075074         1.451668
 H         0.276563        -0.603038        -0.466926
 H        -0.140031         1.668365         2.772764
 H         0.397667         2.518712         1.310207
 H        -3.242323         3.694302         0.356763
 H        -1.904284         4.249334         1.227441
 H        -1.848030         2.931743        -1.552520
 H        -0.323973         3.640653        -0.581372
 H        -2.357995         1.084930        -0.762674
 H        -1.516252        -0.450609         2.365975
 H        -2.620576        -0.631940         0.780174
