19
Iteration:  2103charge 0 multiplicity 1
 O         0.228658        -0.416812         0.313867
 C        -0.652398         0.530870         0.838101
 C        -0.354534         1.719386         1.806256
 C        -1.809193         2.075696         1.231417
 C        -2.175266         3.419774         0.672908
 C        -1.366258         2.953465        -0.615503
 C        -1.501514         1.470135        -0.165259
 O        -2.761242         1.172178         1.765875
 C        -1.900052         0.022427         1.504220
 H         1.161341         0.030841         0.130395
 H        -0.266150         1.600926         2.920114
 H         0.383501         2.385989         1.523315
 H        -3.232706         3.423854         0.386230
 H        -1.883134         4.204909         1.279699
 H        -1.772951         3.351091        -1.635480
 H        -0.341975         3.189715        -0.514553
 H        -2.439844         0.953239        -0.583378
 H        -1.578267        -0.477422         2.443173
 H        -2.419200        -0.785178         0.865192
