19
Iteration:  3963
 O         0.279716        -0.348712         0.320207
 C        -0.669493         0.607364         0.744200
 C        -0.360385         1.794020         1.684601
 C        -1.868579         2.068563         1.222529
 C        -2.253965         3.398537         0.599245
 C        -1.280183         2.930970        -0.604759
 C        -1.451667         1.501578        -0.188916
 O        -2.695641         1.130052         1.928149
 C        -1.912316        -0.053887         1.618802
 H        -0.151604        -1.136266         0.203463
 H        -0.090879         1.771707         2.734846
 H         0.267830         2.454475         1.121481
 H        -3.371782         3.392547         0.395929
 H        -1.994233         4.345549         1.096994
 H        -1.625279         2.906551        -1.555560
 H        -0.277074         3.322405        -0.351061
 H        -2.261269         1.001537        -0.789836
 H        -1.697982        -0.526991         2.578132
 H        -2.593519        -0.725883         1.044620
