19
Iteration:  3756
 O         0.276010        -0.436921         0.345812
 C        -0.748831         0.570512         0.742023
 C        -0.385995         1.825584         1.606874
 C        -1.915527         2.070549         1.220424
 C        -2.172955         3.416226         0.579520
 C        -1.314677         2.928633        -0.586460
 C        -1.562480         1.473176        -0.188538
 O        -2.639639         1.111423         1.921341
 C        -1.870471        -0.027918         1.642381
 H         1.141225        -0.136013         0.642489
 H        -0.533622         1.804938         2.668885
 H         0.316584         2.602879         1.226199
 H        -3.144727         3.692648         0.401848
 H        -1.797030         4.238992         1.177396
 H        -1.788813         3.075361        -1.507206
 H        -0.253877         3.322885        -0.613013
 H        -2.492344         0.990174        -0.635610
 H        -1.422490        -0.503878         2.488855
 H        -2.573269        -0.701092         1.039545
