19
Iteration:   580charge 0 multiplicity 1
 O         0.244849        -0.344837         0.309543
 C        -0.707045         0.507271         0.784107
 C        -0.386092         1.871604         1.675871
 C        -1.912289         2.119252         1.185376
 C        -2.175226         3.491280         0.573910
 C        -1.301707         2.932303        -0.574837
 C        -1.556933         1.459071        -0.152456
 O        -2.622017         1.102838         1.964683
 C        -1.912267        -0.158500         1.551808
 H         0.620319        -0.810284         1.173422
 H        -0.196528         1.838608         2.698185
 H         0.401940         2.571699         1.115397
 H        -3.185334         3.552735         0.181597
 H        -1.922797         4.403665         1.160869
 H        -1.585806         3.088665        -1.667285
 H        -0.288524         3.385321        -0.605109
 H        -2.369651         1.022375        -0.930292
 H        -1.498863        -0.721561         2.387535
 H        -2.539132        -0.858846         0.934464
