19
Iteration:  2541
 O         0.276656        -0.385242         0.396248
 C        -0.734954         0.543562         0.717100
 C        -0.492966         1.767276         1.694584
 C        -1.910386         2.064136         1.189831
 C        -2.156661         3.403783         0.642561
 C        -1.238297         2.948117        -0.517585
 C        -1.526006         1.490831        -0.171422
 O        -2.670625         1.136723         1.905573
 C        -1.894082        -0.042573         1.477019
 H         1.074842         0.228872         0.105648
 H        -0.370184         1.455626         2.778066
 H         0.356032         2.364005         1.399861
 H        -3.060304         3.609471         0.121095
 H        -1.928903         4.257809         1.390440
 H        -1.637207         3.271654        -1.559081
 H        -0.113905         3.269546        -0.631175
 H        -2.391326         0.969611        -0.749571
 H        -1.638765        -0.571926         2.360472
 H        -2.566577        -0.716967         0.934315
