19
Iteration:  2372
 O         0.307072        -0.282194         0.352933
 C        -0.706076         0.536313         0.741771
 C        -0.419644         1.714310         1.679935
 C        -1.925095         2.037329         1.166897
 C        -2.244268         3.447410         0.687357
 C        -1.126496         2.955840        -0.526131
 C        -1.532094         1.458900        -0.209386
 O        -2.729717         1.148781         1.907414
 C        -1.912119        -0.082774         1.588292
 H         0.056903        -0.637462        -0.556249
 H        -0.311978         1.604954         2.799048
 H         0.285683         2.364622         1.287988
 H        -3.245646         3.634987         0.228814
 H        -1.988759         4.313208         1.257309
 H        -1.177250         3.359843        -1.603908
 H        -0.108521         3.226644        -0.332335
 H        -2.261693         1.104575        -0.872869
 H        -1.687042        -0.714116         2.538283
 H        -2.426179        -0.662075         0.910645
