19
Iteration:  4658
 O         0.210417        -0.425742         0.320750
 C        -0.627748         0.528214         0.739302
 C        -0.380591         1.834196         1.631798
 C        -1.858424         2.083149         1.294559
 C        -2.240172         3.373148         0.523740
 C        -1.361069         2.976568        -0.661176
 C        -1.487975         1.425026        -0.099986
 O        -2.685580         1.203972         2.014026
 C        -1.855089        -0.002244         1.558437
 H         0.878613        -0.751978         0.922594
 H        -0.021529         1.783198         2.674765
 H         0.307146         2.434299         1.020044
 H        -3.238198         3.437788         0.088053
 H        -2.013884         4.444137         0.920113
 H        -1.899380         2.961554        -1.639100
 H        -0.267229         3.253674        -0.743599
 H        -2.399052         0.887946        -0.551222
 H        -1.485423        -0.482743         2.432828
 H        -2.544006        -0.766297         1.043637
