19
Iteration:  4325charge 0 multiplicity 1
 O         0.329698        -0.345388         0.244414
 C        -0.699709         0.509186         0.751593
 C        -0.370430         1.777468         1.613229
 C        -1.879538         2.045823         1.187867
 C        -2.192701         3.394576         0.585763
 C        -1.305248         2.884457        -0.681120
 C        -1.578920         1.368707        -0.159632
 O        -2.715162         1.264774         2.029008
 C        -1.877010        -0.011310         1.663003
 H         0.959840        -0.390059         1.092985
 H        -0.224180         1.678494         2.674815
 H         0.210076         2.607036         1.169127
 H        -3.389439         3.479244         0.337637
 H        -1.985104         4.281656         1.283182
 H        -1.763454         3.302164        -1.635681
 H        -0.309951         3.178382        -0.591066
 H        -2.349921         0.881041        -0.701970
 H        -1.460628        -0.406432         2.567668
 H        -2.691912        -0.681659         1.254768
