19
Iteration:  3415
 O         0.309146        -0.362063         0.394553
 C        -0.703005         0.625001         0.778014
 C        -0.383986         1.809564         1.732684
 C        -1.980768         2.044457         1.162988
 C        -2.133336         3.461802         0.616678
 C        -1.285253         2.970125        -0.582329
 C        -1.536651         1.522149        -0.212760
 O        -2.666662         1.075147         1.921690
 C        -1.916741        -0.079001         1.525290
 H         0.010563        -1.365603         0.492286
 H        -0.213302         1.700358         2.828345
 H         0.344944         2.524587         1.185106
 H        -3.278943         3.492622         0.316385
 H        -1.632090         4.294943         1.176137
 H        -1.673781         3.175538        -1.622660
 H        -0.261146         3.216726        -0.679837
 H        -2.236559         0.881610        -0.857971
 H        -1.631454        -0.575895         2.430625
 H        -2.445353        -0.730273         0.790029
