19
Iteration:  3142
 O         0.304546        -0.435837         0.374963
 C        -0.713395         0.573293         0.764090
 C        -0.427051         1.802521         1.651445
 C        -1.891299         2.094109         1.194869
 C        -2.190844         3.475980         0.570949
 C        -1.336164         2.991402        -0.580942
 C        -1.520398         1.470112        -0.204154
 O        -2.672871         1.105323         1.914093
 C        -1.881247        -0.058227         1.557787
 H         0.718881        -0.794881         1.103644
 H        -0.217573         1.702438         2.766713
 H         0.392089         2.271343         1.202303
 H        -3.170236         3.666170         0.368418
 H        -1.947111         4.263674         1.232507
 H        -1.631737         3.304611        -1.667418
 H        -0.325300         3.409672        -0.394681
 H        -2.420456         1.026203        -0.608697
 H        -1.501195        -0.740902         2.419313
 H        -2.496763        -0.743186         0.860573
