19
Iteration:   201charge 0 multiplicity 1
 O         0.276284        -0.336683         0.266846
 C        -0.688484         0.482881         0.831448
 C        -0.441742         1.773928         1.711124
 C        -1.830858         2.109547         1.157686
 C        -2.202456         3.478234         0.559050
 C        -1.375166         2.991396        -0.619614
 C        -1.517011         1.406524        -0.138522
 O        -2.620666         1.161632         1.916933
 C        -1.928448        -0.080270         1.589328
 H         0.659616        -0.944152         0.901115
 H        -0.358418         1.768096         2.776901
 H         0.599698         2.165562         1.400787
 H        -3.282000         3.606732         0.476636
 H        -1.737411         4.317915         1.093602
 H        -1.691240         3.166459        -1.659090
 H        -0.347600         3.473099        -0.645007
 H        -2.390039         0.881082        -0.702930
 H        -1.680490        -0.421450         2.558966
 H        -2.468351        -0.888211         1.126742
