19
Iteration:   600
 O         0.284318        -0.358292         0.290480
 C        -0.623339         0.588434         0.765251
 C        -0.449015         1.694653         1.725921
 C        -1.855228         2.075055         1.236000
 C        -2.193986         3.439274         0.598984
 C        -1.372756         2.961569        -0.689424
 C        -1.506443         1.451012        -0.161743
 O        -2.691482         1.147031         1.918137
 C        -1.888621         0.027531         1.585795
 H         0.663754        -0.791437         1.055550
 H        -0.395576         1.421847         2.723000
 H         0.484989         2.336891         1.467811
 H        -3.259353         3.551602         0.477818
 H        -1.738832         4.312207         1.156448
 H        -1.832995         3.245603        -1.711378
 H        -0.363272         3.295893        -0.845688
 H        -2.393987         0.812129        -0.579584
 H        -1.520019        -0.619227         2.514507
 H        -2.473782        -0.762737         1.029074
