19
Iteration:  1293
 O         0.332264        -0.310235         0.304106
 C        -0.655282         0.595506         0.724953
 C        -0.433532         1.699499         1.708259
 C        -1.833254         2.040070         1.185219
 C        -2.087523         3.406064         0.660327
 C        -1.401848         2.938061        -0.590673
 C        -1.541359         1.394314        -0.189443
 O        -2.710287         1.229544         1.882270
 C        -1.938396        -0.042744         1.569477
 H         0.942129        -0.828352         0.893350
 H        -0.587719         1.512780         2.880376
 H         0.329956         2.377746         1.548466
 H        -3.221340         3.558719         0.400821
 H        -1.755291         4.375924         1.152032
 H        -1.994057         3.174051        -1.486495
 H        -0.377037         3.318744        -0.685866
 H        -2.317976         0.763269        -0.598043
 H        -1.629845        -0.564172         2.468203
 H        -2.658919        -0.494777         0.980355
