19
Iteration:   299charge 0 multiplicity 1
 O         0.204377        -0.379779         0.277949
 C        -0.647073         0.638608         0.760530
 C        -0.360785         1.756194         1.660217
 C        -1.868347         2.118903         1.229686
 C        -2.236470         3.440773         0.620069
 C        -1.259495         2.844958        -0.628159
 C        -1.558807         1.439407        -0.133605
 O        -2.684097         1.136029         1.910631
 C        -1.900891        -0.013324         1.590162
 H         0.939963        -0.556003         0.823761
 H        -0.165109         1.465613         2.684021
 H         0.435891         2.658587         1.586916
 H        -3.301071         3.476238         0.347008
 H        -1.974575         4.370766         1.155469
 H        -1.620200         3.082249        -1.622657
 H        -0.232767         3.332641        -0.594774
 H        -2.377196         0.902150        -0.657522
 H        -1.558535        -0.612276         2.493751
 H        -2.509173        -0.658353         0.935446
