19
Iteration:   168
 O         0.290702        -0.380490         0.297297
 C        -0.707364         0.606058         0.666244
 C        -0.383028         1.878646         1.609031
 C        -1.911432         2.056518         1.240178
 C        -2.167537         3.334268         0.580322
 C        -1.214436         2.939192        -0.543788
 C        -1.582652         1.459017        -0.183502
 O        -2.676955         1.159027         2.035567
 C        -1.975665        -0.059048         1.576637
 H         0.784799        -0.536874         1.251170
 H        -0.354664         1.562389         2.575276
 H         0.323797         2.472863         0.909125
 H        -3.127726         3.418486         0.082440
 H        -1.872531         4.300800         1.036581
 H        -1.659725         3.106106        -1.569686
 H        -0.137984         3.192346        -0.353088
 H        -2.410176         0.968116        -0.892218
 H        -1.538606        -0.337577         2.482748
 H        -2.539894        -0.909337         1.171234
