19
Iteration:  4860charge 0 multiplicity 1
 O         0.280628        -0.274767         0.249268
 C        -0.697127         0.508575         0.795200
 C        -0.447362         1.830248         1.637968
 C        -1.836843         2.035119         1.204386
 C        -2.099025         3.455503         0.557378
 C        -1.373710         2.887312        -0.647180
 C        -1.603818         1.357026        -0.171999
 O        -2.711203         1.194371         1.892743
 C        -1.842080        -0.016575         1.743403
 H         0.879773        -0.712029         0.919640
 H         0.010745         1.517221         2.555289
 H         0.232956         2.323282         0.987259
 H        -3.220814         3.530902         0.461830
 H        -1.542252         4.294068         1.150032
 H        -1.808463         3.042338        -1.550155
 H        -0.335546         3.024828        -0.630279
 H        -2.452155         0.862834        -0.425174
 H        -1.597914        -0.248129         2.831681
 H        -2.497739        -0.761096         1.349158
