19
Iteration:   831
 O         0.211568        -0.370852         0.227843
 C        -0.693677         0.561311         0.801461
 C        -0.358789         1.792556         1.748993
 C        -1.877259         2.097169         1.286729
 C        -2.232581         3.476964         0.553899
 C        -1.298118         2.975368        -0.651282
 C        -1.502130         1.489849        -0.171959
 O        -2.708432         1.085587         1.974113
 C        -1.847356        -0.090973         1.537038
 H         0.748012        -0.827491         0.990986
 H        -0.111142         1.700943         2.847553
 H         0.241939         2.502550         1.298832
 H        -3.335245         3.613213         0.333956
 H        -1.973488         4.343640         1.136344
 H        -1.721467         3.088875        -1.672496
 H        -0.256726         3.298467        -0.756889
 H        -2.004879         0.866496        -0.838674
 H        -1.431724        -0.558988         2.535277
 H        -2.507567        -0.821386         0.992963
