19
Iteration:  1919
 O         0.321955        -0.394934         0.380108
 C        -0.664594         0.587900         0.723948
 C        -0.319002         1.716970         1.786936
 C        -1.859617         2.062697         1.221444
 C        -2.156768         3.399312         0.661036
 C        -1.322312         2.945314        -0.616096
 C        -1.497560         1.496405        -0.187384
 O        -2.822623         1.136939         1.863584
 C        -1.977788         0.018751         1.521209
 H         0.674819        -0.099683        -0.568361
 H        -0.519731         1.436844         2.876772
 H         0.464470         2.408444         1.607530
 H        -3.247244         3.412520         0.467884
 H        -1.689970         4.284848         1.292077
 H        -1.677236         3.357155        -1.651710
 H        -0.300314         3.185630        -0.620750
 H        -2.155552         0.859757        -0.811063
 H        -1.576686        -0.434832         2.522672
 H        -2.410652        -0.744796         1.016283
