19
Iteration:  3868charge 0 multiplicity 1
 O         0.313337        -0.380426         0.388196
 C        -0.678735         0.550537         0.808312
 C        -0.427204         1.752000         1.685540
 C        -1.868559         2.105613         1.129126
 C        -2.201063         3.475399         0.523716
 C        -1.361572         3.018735        -0.598978
 C        -1.504300         1.445122        -0.153404
 O        -2.627804         1.123229         1.943944
 C        -1.879196        -0.076692         1.581407
 H        -0.244495        -1.144620        -0.058269
 H        -0.384792         1.682484         2.830511
 H         0.315470         2.435446         1.270965
 H        -3.229848         3.508519         0.447187
 H        -1.920493         4.412186         1.099662
 H        -1.932170         3.238841        -1.549217
 H        -0.345797         3.344113        -0.410993
 H        -2.404161         1.059887        -0.669446
 H        -1.387409        -0.563301         2.436166
 H        -2.394489        -0.837088         0.943911
