19
Iteration:   536charge 0 multiplicity 1
 O         0.274884        -0.322271         0.240642
 C        -0.689281         0.577645         0.726569
 C        -0.407026         1.714086         1.775073
 C        -1.866270         2.119142         1.196861
 C        -2.243633         3.421238         0.594613
 C        -1.337160         2.941820        -0.625855
 C        -1.486148         1.440245        -0.159156
 O        -2.637903         1.175223         1.912116
 C        -1.930758        -0.096381         1.624645
 H         0.691013        -0.822448         1.044079
 H        -0.395465         1.544271         2.792101
 H         0.588767         2.322407         1.408963
 H        -3.267353         3.566446         0.280958
 H        -1.887673         4.376338         1.068170
 H        -1.692797         3.254557        -1.702104
 H        -0.283702         3.252828        -0.550469
 H        -2.328342         0.761099        -0.725228
 H        -1.464140        -0.266352         2.488268
 H        -2.645380        -0.778913         1.211931
