19
Iteration:  3189charge 0 multiplicity 1
 O         0.245416        -0.305937         0.237991
 C        -0.680806         0.527070         0.805900
 C        -0.431779         1.731374         1.711062
 C        -1.902591         2.105579         1.178692
 C        -2.219698         3.391773         0.530229
 C        -1.244964         2.989069        -0.603171
 C        -1.449918         1.461195        -0.138609
 O        -2.663862         1.139041         1.933248
 C        -1.920705        -0.064217         1.660923
 H         0.521094        -1.168209         0.657383
 H        -0.447454         1.688046         2.780786
 H         0.250613         2.589931         1.437316
 H        -3.321457         3.428438         0.398916
 H        -1.975334         4.445843         0.846566
 H        -1.657900         3.246807        -1.721590
 H        -0.271049         3.414400        -0.402022
 H        -2.139470         1.015973        -0.810172
 H        -1.619405        -0.636074         2.659495
 H        -2.453471        -0.786397         1.030374
