19
Iteration:   851charge 0 multiplicity 1
 O         0.307045        -0.343050         0.293322
 C        -0.693145         0.572005         0.735584
 C        -0.438229         1.842975         1.557843
 C        -1.914055         2.064631         1.163393
 C        -2.174316         3.395462         0.654104
 C        -1.267494         2.921568        -0.505645
 C        -1.587180         1.440418        -0.165212
 O        -2.657473         1.130926         1.947327
 C        -1.873444        -0.027759         1.571353
 H         0.538420        -0.893726         1.011553
 H        -0.291917         1.612925         2.612269
 H         0.314152         2.558479         1.204538
 H        -3.212814         3.531696         0.333188
 H        -1.868066         4.286240         1.219777
 H        -1.619935         3.192133        -1.567917
 H        -0.260666         3.189002        -0.372683
 H        -2.417794         1.015644        -0.520662
 H        -1.702944        -0.683464         2.522475
 H        -2.511280        -0.656083         0.924799
