19
Iteration:  3464
 O         0.331645        -0.341153         0.423527
 C        -0.709336         0.547361         0.767419
 C        -0.414064         1.679432         1.689131
 C        -1.842102         2.064149         1.235120
 C        -2.228995         3.441908         0.590939
 C        -1.320719         3.035289        -0.589870
 C        -1.489130         1.425314        -0.237951
 O        -2.712747         1.191614         1.896970
 C        -1.902661        -0.040329         1.545958
 H         0.065480        -0.860599        -0.254578
 H        -0.264239         1.466141         2.800487
 H         0.458755         2.222174         1.460562
 H        -3.131327         3.295343         0.111244
 H        -2.088039         4.306945         1.293992
 H        -1.584750         3.383647        -1.602262
 H        -0.210735         3.440589        -0.555881
 H        -2.322789         0.947649        -0.654617
 H        -1.399616        -0.548943         2.527467
 H        -2.555536        -0.824150         1.100633
