19
Iteration:  3072
 O         0.243311        -0.338790         0.298262
 C        -0.728996         0.538939         0.782467
 C        -0.475027         1.766034         1.716237
 C        -1.888289         2.080516         1.162821
 C        -2.135527         3.464472         0.565641
 C        -1.179600         2.957789        -0.600527
 C        -1.572096         1.473472        -0.117095
 O        -2.720269         1.035259         1.933850
 C        -1.862256        -0.060167         1.588830
 H         1.006597         0.066124         0.738333
 H        -0.213718         1.618542         2.789320
 H         0.356356         2.475283         1.246819
 H        -3.190788         3.714253         0.144496
 H        -1.867580         4.485518         0.929476
 H        -1.687018         3.228191        -1.487571
 H        -0.073176         3.277724        -0.678686
 H        -2.527163         1.047636        -0.686750
 H        -1.521583        -0.603778         2.486743
 H        -2.570279        -0.845780         0.984521
