19
Iteration:  3772charge 0 multiplicity 1
 O         0.187736        -0.399157         0.374590
 C        -0.647200         0.602642         0.765964
 C        -0.408928         1.822954         1.697692
 C        -1.903394         2.123700         1.209514
 C        -2.147622         3.535894         0.612571
 C        -1.329189         2.856727        -0.682376
 C        -1.630501         1.442202        -0.151203
 O        -2.683350         1.087452         1.940164
 C        -1.801800        -0.081214         1.539612
 H         1.164613        -0.030811         0.429831
 H        -0.049886         1.472863         2.720563
 H         0.338184         2.529034         1.319634
 H        -3.264662         3.752723         0.281148
 H        -1.693197         4.428585         1.149216
 H        -1.806582         3.074323        -1.729654
 H        -0.271613         3.080722        -0.609702
 H        -2.369365         0.838670        -0.648350
 H        -1.402032        -0.577858         2.526912
 H        -2.317839        -0.950118         0.985545
