19
Iteration:  2204
 O         0.247676        -0.445633         0.311511
 C        -0.702530         0.542749         0.823712
 C        -0.452885         1.791803         1.841774
 C        -1.876007         2.104673         1.180279
 C        -2.155915         3.515794         0.604699
 C        -1.281949         3.008306        -0.614321
 C        -1.408146         1.527842        -0.110169
 O        -2.730416         1.049923         1.865972
 C        -1.916958        -0.114511         1.542450
 H         0.539264        -0.074147        -0.538825
 H        -0.527691         1.504829         2.882570
 H         0.423041         2.409681         1.376468
 H        -3.137386         3.586983         0.289451
 H        -1.632008         4.418328         1.074992
 H        -1.876301         3.021084        -1.556773
 H        -0.357785         3.641374        -1.023329
 H        -2.270297         0.999021        -0.590314
 H        -1.514755        -0.593254         2.501291
 H        -2.407511        -0.841163         0.891980
