19
Iteration:  4065
 O         0.262806        -0.351622         0.323563
 C        -0.702775         0.584289         0.756897
 C        -0.378155         1.669912         1.704653
 C        -1.853786         2.070551         1.212229
 C        -2.130277         3.422587         0.517495
 C        -1.371806         2.927167        -0.651153
 C        -1.561898         1.471259        -0.209519
 O        -2.742329         1.160509         1.954030
 C        -1.853881        -0.063479         1.692424
 H         1.202806         0.087943         0.487180
 H        -0.106525         1.423063         2.762678
 H         0.359123         2.491625         1.500565
 H        -3.209648         3.492920         0.301467
 H        -1.826806         4.474513         1.007806
 H        -1.852695         3.321520        -1.624337
 H        -0.390077         3.386490        -0.754526
 H        -2.388748         0.878197        -0.819803
 H        -1.364379        -0.461632         2.555397
 H        -2.542164        -0.761818         1.226190
