19
Iteration:  1729
 O         0.331674        -0.324288         0.359723
 C        -0.709526         0.532873         0.703291
 C        -0.464558         1.689002         1.734099
 C        -1.847154         2.051150         1.201834
 C        -2.191496         3.438277         0.719187
 C        -1.287800         2.998158        -0.589303
 C        -1.457877         1.487505        -0.187676
 O        -2.729257         1.204341         1.857444
 C        -1.894510        -0.050914         1.519694
 H         0.145460        -1.108496        -0.131632
 H        -0.514434         1.260449         2.780049
 H         0.396618         2.330410         1.462804
 H        -3.290017         3.303350         0.362909
 H        -1.781578         4.185115         1.365228
 H        -1.487727         3.266124        -1.649667
 H        -0.276134         3.446467        -0.304547
 H        -2.373321         1.000675        -0.725236
 H        -1.649288        -0.534034         2.426099
 H        -2.585266        -0.706687         1.085119
