19
Iteration:  3764charge 0 multiplicity 1
 O         0.204019        -0.401591         0.377069
 C        -0.674640         0.586096         0.684955
 C        -0.359188         1.842928         1.664512
 C        -1.915242         2.043457         1.164995
 C        -2.161170         3.527744         0.622319
 C        -1.344648         2.859683        -0.629415
 C        -1.586076         1.455841        -0.098295
 O        -2.651828         1.084549         1.928933
 C        -1.849315        -0.065352         1.574413
 H         1.128953        -0.061152         0.590953
 H        -0.374072         1.744477         2.750988
 H         0.356984         2.557970         1.368058
 H        -3.262975         3.730438         0.241358
 H        -1.734594         4.322101         1.160364
 H        -1.637274         3.011244        -1.670754
 H        -0.317135         3.086906        -0.709800
 H        -2.482813         1.125680        -0.643179
 H        -1.475081        -0.414860         2.507467
 H        -2.375255        -0.774276         1.067407
