19
Iteration:  2180
 O         0.315588        -0.409983         0.415031
 C        -0.708189         0.600639         0.735578
 C        -0.390824         1.730656         1.719595
 C        -1.866235         2.048343         1.229144
 C        -2.165937         3.431883         0.689670
 C        -1.283386         2.982400        -0.569748
 C        -1.547382         1.478164        -0.208612
 O        -2.758946         1.141499         1.842061
 C        -1.935712        -0.026951         1.534568
 H         0.745786        -0.213145        -0.361231
 H        -0.180216         1.442450         2.772512
 H         0.302163         2.370126         1.187553
 H        -3.234303         3.433470         0.478810
 H        -1.729895         4.304121         1.195465
 H        -1.491164         3.333563        -1.619959
 H        -0.220430         3.289497        -0.481107
 H        -2.367505         0.902421        -0.742186
 H        -1.532024        -0.443556         2.361272
 H        -2.448317        -0.798489         0.899878
