19
Iteration:  1837
 O         0.324439        -0.361920         0.449713
 C        -0.739974         0.536936         0.754752
 C        -0.388325         1.735866         1.629802
 C        -1.829392         2.066770         1.159801
 C        -2.207347         3.450645         0.682127
 C        -1.208321         3.034172        -0.564769
 C        -1.528906         1.480533        -0.191856
 O        -2.726346         1.126302         1.872912
 C        -1.945998        -0.105370         1.543543
 H         0.255623        -0.475871        -0.538240
 H        -0.317836         1.699347         2.748973
 H         0.416652         2.444074         1.327538
 H        -3.302238         3.643204         0.465831
 H        -2.000087         4.295180         1.313779
 H        -1.597328         3.315613        -1.525612
 H        -0.126253         3.292874        -0.398319
 H        -2.458486         0.998720        -0.574201
 H        -1.692208        -0.735954         2.389041
 H        -2.580399        -0.835257         0.833710
