19
Iteration:  2411charge 0 multiplicity 1
 O         0.305396        -0.386592         0.377318
 C        -0.657282         0.602561         0.787305
 C        -0.386068         1.661883         1.773566
 C        -1.905199         2.097793         1.233696
 C        -2.190105         3.551240         0.634390
 C        -1.320264         3.001912        -0.669913
 C        -1.445502         1.538711        -0.152234
 O        -2.763998         1.076641         1.848575
 C        -1.850581        -0.061396         1.473920
 H        -0.123558        -1.178872         0.388896
 H        -0.480001         1.248117         2.797431
 H         0.418104         2.435028         1.625082
 H        -3.236974         3.632195         0.440330
 H        -1.624993         4.311500         1.287099
 H        -1.875654         3.122975        -1.542328
 H        -0.258743         3.344749        -0.545144
 H        -2.246593         0.873604        -0.639191
 H        -1.586134        -0.669462         2.282184
 H        -2.599396        -0.599629         0.681302
