19
Iteration:  2227charge 0 multiplicity 1
 O         0.191594        -0.421343         0.338227
 C        -0.645492         0.573522         0.755236
 C        -0.476569         1.803499         1.790688
 C        -1.919002         2.077711         1.234683
 C        -2.162352         3.457907         0.635170
 C        -1.290345         2.936189        -0.592166
 C        -1.469710         1.473380        -0.179152
 O        -2.671259         1.119571         1.898921
 C        -1.875509        -0.080213         1.496413
 H         0.837656         0.015237        -0.340599
 H        -0.562552         1.492027         2.833343
 H         0.231417         2.660023         1.474881
 H        -3.124971         3.549664         0.282760
 H        -1.633230         4.313075         1.183619
 H        -1.521287         3.317063        -1.594216
 H        -0.140443         3.311471        -0.500111
 H        -2.178080         0.829005        -0.724063
 H        -1.685448        -0.686908         2.457232
 H        -2.501950        -0.614407         0.807515
