19
Iteration:  3588
 O         0.233485        -0.428422         0.327927
 C        -0.643400         0.624881         0.767148
 C        -0.448184         1.831861         1.684945
 C        -1.893013         2.081684         1.232871
 C        -2.185767         3.402929         0.578437
 C        -1.358869         2.980613        -0.619672
 C        -1.466496         1.486334        -0.218660
 O        -2.644702         1.127990         1.986203
 C        -1.840523        -0.045933         1.546076
 H         0.257614        -1.140094         0.890906
 H        -0.394474         1.624001         2.762096
 H         0.464336         2.408210         1.348667
 H        -3.319841         3.381845         0.378682
 H        -1.994332         4.336463         1.043575
 H        -1.686967         3.256468        -1.675370
 H        -0.299478         3.246508        -0.433086
 H        -2.262187         0.958082        -0.849986
 H        -1.728684        -0.661943         2.494136
 H        -2.433881        -0.678942         0.721233
