19
Iteration:   343charge 0 multiplicity 1
 O         0.285811        -0.366109         0.302476
 C        -0.660047         0.548869         0.776799
 C        -0.392505         1.726722         1.634716
 C        -1.920923         2.064125         1.166986
 C        -2.170564         3.509047         0.626805
 C        -1.383242         2.956229        -0.651293
 C        -1.474757         1.470838        -0.167573
 O        -2.707325         1.099419         1.986784
 C        -1.907619        -0.005745         1.593505
 H         0.682395        -0.769499         1.028765
 H        -0.282597         1.674498         2.718818
 H         0.555364         2.386210         1.366485
 H        -3.222920         3.713994         0.339384
 H        -1.771347         4.317799         1.250115
 H        -1.726372         3.116283        -1.633362
 H        -0.319414         3.195729        -0.905619
 H        -2.165145         0.962734        -0.848048
 H        -1.607224        -0.510407         2.570910
 H        -2.502452        -0.792668         1.083317
