19
Iteration:  4092charge 0 multiplicity 1
 O         0.255435        -0.422639         0.297124
 C        -0.714064         0.539562         0.775937
 C        -0.403184         1.830282         1.633421
 C        -1.845908         2.143826         1.176145
 C        -2.267166         3.451622         0.596684
 C        -1.262348         2.890214        -0.590554
 C        -1.598682         1.411107        -0.170218
 O        -2.654524         1.171410         1.963924
 C        -1.857535        -0.093111         1.617498
 H         1.115314        -0.230703         0.874593
 H        -0.161115         1.779478         2.685228
 H         0.313186         2.484585         1.152333
 H        -3.322489         3.433904         0.279797
 H        -2.026887         4.304378         1.098368
 H        -1.574077         3.190181        -1.572305
 H        -0.296319         3.447090        -0.593833
 H        -2.335326         0.989342        -0.719875
 H        -1.365277        -0.586201         2.506439
 H        -2.595250        -0.611916         1.005161
