19
Iteration:  3445charge 0 multiplicity 1
 O         0.332370        -0.395119         0.414763
 C        -0.731561         0.597068         0.729185
 C        -0.425177         1.741994         1.635574
 C        -1.901013         2.088834         1.144897
 C        -2.244614         3.403679         0.601710
 C        -1.248271         3.045795        -0.569215
 C        -1.483423         1.533481        -0.188783
 O        -2.647251         1.119919         1.920937
 C        -1.940725        -0.058383         1.592304
 H         0.112742        -1.224097         0.132382
 H        -0.191461         1.550050         2.687754
 H         0.391582         2.487013         1.472306
 H        -3.357059         3.296557         0.543398
 H        -2.052326         4.326250         1.039974
 H        -1.443585         3.032195        -1.609780
 H        -0.139756         3.357111        -0.372876
 H        -2.378814         1.062241        -0.728482
 H        -1.769265        -0.591320         2.505519
 H        -2.448373        -0.847928         0.971833
