19
Iteration:  1912charge 0 multiplicity 1
 O         0.318130        -0.365598         0.358621
 C        -0.677474         0.576470         0.721129
 C        -0.361368         1.733711         1.767962
 C        -1.812536         2.115481         1.231727
 C        -2.162185         3.449844         0.677342
 C        -1.314174         2.907031        -0.598280
 C        -1.461863         1.450621        -0.184673
 O        -2.854067         1.140955         1.833220
 C        -1.945293        -0.031155         1.543254
 H         0.612669        -0.255590        -0.544242
 H        -0.176957         1.353394         2.843632
 H         0.501137         2.424648         1.659412
 H        -3.239070         3.256500         0.547768
 H        -1.832829         4.455439         1.162035
 H        -1.772286         3.117200        -1.570959
 H        -0.227445         3.239461        -0.408269
 H        -2.272337         0.919275        -0.664633
 H        -1.682848        -0.320789         2.546109
 H        -2.536022        -0.751040         0.819084
