19
Iteration:   724charge 0 multiplicity 1
 O         0.258911        -0.387891         0.240151
 C        -0.639899         0.597926         0.772756
 C        -0.391117         1.785017         1.755213
 C        -1.883023         2.065369         1.282025
 C        -2.185203         3.408193         0.626949
 C        -1.332789         2.907839        -0.675604
 C        -1.501484         1.509797        -0.157993
 O        -2.761783         1.169550         1.903636
 C        -1.846366        -0.050644         1.543024
 H         0.752021        -0.885811         0.986171
 H        -0.072874         1.574701         2.864439
 H         0.366669         2.382879         1.315019
 H        -3.251995         3.604727         0.288381
 H        -1.860134         4.186182         1.285133
 H        -1.797087         3.112785        -1.613621
 H        -0.269415         3.462663        -0.692407
 H        -2.414249         0.825127        -0.562813
 H        -1.545488        -0.477199         2.471807
 H        -2.522173        -0.703708         0.954666
