19
Iteration:   154
 O         0.218934        -0.374473         0.305981
 C        -0.714843         0.537626         0.781850
 C        -0.417824         1.838629         1.617737
 C        -1.882998         2.099112         1.217479
 C        -2.181563         3.467066         0.561783
 C        -1.249671         2.889568        -0.590062
 C        -1.576617         1.431530        -0.151881
 O        -2.667611         1.110121         1.954401
 C        -1.860882        -0.046882         1.582604
 H         0.873270        -0.481121         0.938325
 H        -0.149545         1.845173         2.659189
 H         0.347542         2.602140         1.245497
 H        -3.243602         3.482898         0.304529
 H        -1.898488         4.358431         1.158599
 H        -1.465974         3.239937        -1.630727
 H        -0.273030         3.175541        -0.461078
 H        -2.392763         0.988950        -0.610709
 H        -1.556842        -0.695093         2.403272
 H        -2.470154        -0.622574         0.950804
