19
Iteration:    96charge 0 multiplicity 1
 O         0.281940        -0.369702         0.356690
 C        -0.670727         0.545704         0.792467
 C        -0.239120         1.770090         1.623881
 C        -1.918526         2.076371         1.139411
 C        -2.170601         3.468774         0.645127
 C        -1.371348         2.938751        -0.626185
 C        -1.575979         1.394787        -0.128676
 O        -2.722567         1.175973         1.888650
 C        -1.914277        -0.020947         1.554904
 H         0.924669        -0.493939         1.166934
 H        -0.239203         1.478984         2.764388
 H         0.485403         2.334398         1.187757
 H        -3.232889         3.724764         0.408331
 H        -1.788990         4.189629         1.368321
 H        -1.975920         3.129376        -1.461489
 H        -0.309272         3.306824        -0.753846
 H        -2.297737         0.836523        -0.695662
 H        -1.606246        -0.574348         2.496934
 H        -2.601013        -0.645110         0.936226
