19
Iteration:  3909charge 0 multiplicity 1
 O         0.372958        -0.243029         0.387337
 C        -0.711469         0.513750         0.729004
 C        -0.429962         1.742856         1.592256
 C        -1.903203         2.067284         1.192328
 C        -2.101129         3.486291         0.621878
 C        -1.304304         2.999923        -0.589267
 C        -1.594293         1.396603        -0.144931
 O        -2.721044         1.120924         1.935413
 C        -1.902576        -0.094502         1.586628
 H         0.250772        -1.109483         0.621331
 H        -0.197124         1.623915         2.667899
 H         0.328091         2.250847         0.996292
 H        -3.135214         3.735764         0.167094
 H        -1.661454         4.337128         1.250345
 H        -1.856593         3.119125        -1.499235
 H        -0.199026         3.344434        -0.760840
 H        -2.444686         0.839518        -0.689777
 H        -1.589889        -0.525443         2.488201
 H        -2.575953        -0.734890         1.103113
