19
Iteration:  1642charge 0 multiplicity 1
 O         0.300621        -0.387626         0.288386
 C        -0.753723         0.472441         0.720503
 C        -0.428883         1.696800         1.684073
 C        -1.979437         2.072110         1.226747
 C        -2.142800         3.432572         0.673682
 C        -1.251750         3.001550        -0.565457
 C        -1.454288         1.547582        -0.251480
 O        -2.677471         1.121053         1.967923
 C        -1.952410        -0.066491         1.551147
 H         1.161488         0.010931         0.713104
 H        -0.357000         1.538131         2.776385
 H         0.280144         2.363185         1.175337
 H        -3.290734         3.581720         0.262553
 H        -1.941102         4.330144         1.265133
 H        -1.471064         3.260746        -1.650148
 H        -0.247805         3.471019        -0.401205
 H        -2.342694         1.180622        -0.910920
 H        -1.622019        -0.373167         2.552167
 H        -2.598828        -0.717788         1.005170
