19
Iteration:  3316charge 0 multiplicity 1
 O         0.231748        -0.496296         0.375036
 C        -0.646687         0.507018         0.815712
 C        -0.386026         1.816905         1.756261
 C        -1.910040         2.139458         1.183333
 C        -2.200177         3.432337         0.546934
 C        -1.298028         2.997923        -0.614929
 C        -1.523239         1.533965        -0.206740
 O        -2.703995         1.113048         1.962938
 C        -1.881623        -0.081199         1.552517
 H         0.945699         0.028365        -0.223226
 H        -0.354735         1.666231         2.850067
 H         0.404859         2.445465         1.269860
 H        -3.306287         3.421111         0.135189
 H        -1.934067         4.347064         1.146088
 H        -1.441312         3.130434        -1.657415
 H        -0.327886         3.451254        -0.385968
 H        -2.239365         1.058775        -0.963204
 H        -1.471602        -0.555383         2.424009
 H        -2.590411        -0.757937         0.968874
