19
Iteration:  1717
 O         0.304658        -0.381104         0.355324
 C        -0.651531         0.587756         0.752497
 C        -0.460239         1.676703         1.775326
 C        -1.862224         2.086205         1.206409
 C        -2.184621         3.420497         0.684924
 C        -1.272228         3.000736        -0.590112
 C        -1.459095         1.516569        -0.191624
 O        -2.702194         1.148402         1.832010
 C        -1.919639        -0.071167         1.547887
 H        -0.254152        -0.800783        -0.302570
 H        -0.420557         1.423555         2.944858
 H         0.299944         2.429094         1.645335
 H        -3.320559         3.646684         0.606262
 H        -1.997514         4.356856         1.237340
 H        -1.852308         3.161664        -1.570637
 H        -0.212027         3.390252        -0.693270
 H        -2.214125         0.981943        -0.911716
 H        -1.511599        -0.548822         2.389916
 H        -2.450007        -0.656271         0.796049
