19
Iteration:  3198
 O         0.304374        -0.325135         0.195480
 C        -0.693286         0.567223         0.827125
 C        -0.405926         1.773620         1.779799
 C        -1.873450         2.039967         1.178698
 C        -2.227834         3.489396         0.530475
 C        -1.236420         2.955378        -0.634112
 C        -1.523459         1.436039        -0.132297
 O        -2.698255         1.165821         1.924939
 C        -1.925402        -0.088617         1.634466
 H         0.457328        -1.032486         0.916101
 H        -0.361945         1.511531         2.833979
 H         0.296083         2.451158         1.287737
 H        -3.217616         3.375958         0.270030
 H        -2.062380         4.299838         1.242510
 H        -1.496835         3.259874        -1.779333
 H        -0.303382         3.454121        -0.576497
 H        -2.257014         0.884407        -0.651840
 H        -1.506011        -0.658368         2.570471
 H        -2.631138        -0.798976         1.104356
