19
Iteration:  2886charge 0 multiplicity 1
 O         0.297585        -0.419779         0.457730
 C        -0.630015         0.504708         0.805207
 C        -0.364269         1.741594         1.675691
 C        -1.866808         2.033666         1.177443
 C        -2.212517         3.417711         0.625488
 C        -1.320963         3.125904        -0.605914
 C        -1.432569         1.562571        -0.183571
 O        -2.720219         1.084457         1.905522
 C        -1.962272        -0.055904         1.522528
 H         0.011614        -0.915059        -0.395582
 H        -0.325734         1.785657         2.819733
 H         0.307620         2.479779         1.290952
 H        -3.287388         3.587065         0.300025
 H        -2.006671         4.205312         1.261968
 H        -1.664681         3.401798        -1.661800
 H        -0.289317         3.511722        -0.606647
 H        -2.153201         0.928186        -0.855679
 H        -1.798514        -0.611685         2.416969
 H        -2.568534        -0.705619         0.786307
