19
Iteration:  2750charge 0 multiplicity 1
 O         0.367362        -0.399076         0.439065
 C        -0.703739         0.525623         0.775605
 C        -0.433036         1.770448         1.660613
 C        -1.927588         2.048152         1.121317
 C        -2.216378         3.478564         0.659295
 C        -1.277151         3.059281        -0.555882
 C        -1.456775         1.488031        -0.230472
 O        -2.673429         1.104514         1.961171
 C        -1.987276        -0.058708         1.485099
 H         0.092273        -1.089838        -0.078874
 H        -0.297855         1.713350         2.713387
 H         0.301199         2.484559         1.169304
 H        -3.262940         3.584832         0.557945
 H        -1.809035         4.320089         1.321221
 H        -1.455324         3.338535        -1.563587
 H        -0.210418         3.474370        -0.372418
 H        -2.121163         0.859709        -0.882003
 H        -1.709970        -0.816764         2.367695
 H        -2.619366        -0.623966         0.743556
