19
Iteration:    38charge 0 multiplicity 1
 O         0.209051        -0.331803         0.221536
 C        -0.632216         0.587431         0.822079
 C        -0.370906         1.720309         1.742431
 C        -1.876417         2.115513         1.232232
 C        -2.253491         3.448709         0.511040
 C        -1.337376         2.854061        -0.605720
 C        -1.440392         1.414615        -0.108260
 O        -2.704580         1.193051         1.888668
 C        -1.889172        -0.000708         1.617661
 H         0.569256        -0.963689         0.777739
 H        -0.160402         1.516902         2.797664
 H         0.493011         2.457162         1.470332
 H        -3.343438         3.502750         0.394975
 H        -1.871231         4.370202         0.989739
 H        -1.482733         3.074755        -1.721771
 H        -0.327969         3.327315        -0.453017
 H        -2.194080         0.801050        -0.782000
 H        -1.566474        -0.544275         2.559518
 H        -2.607866        -0.727375         1.021004
