19
Iteration:  4043charge 0 multiplicity 1
 O         0.298020        -0.430662         0.350403
 C        -0.669030         0.516567         0.816903
 C        -0.461137         1.846110         1.626476
 C        -1.925647         2.118124         1.188777
 C        -2.151077         3.486582         0.634486
 C        -1.352343         2.886769        -0.670151
 C        -1.522115         1.437270        -0.106676
 O        -2.659539         1.117147         1.939119
 C        -1.891737        -0.074817         1.576264
 H         0.933447         0.068155        -0.069149
 H        -0.263003         1.872969         2.741938
 H         0.321142         2.570427         1.285678
 H        -3.179674         3.822532         0.440501
 H        -1.627245         4.348828         1.285394
 H        -1.801765         3.060268        -1.711128
 H        -0.324139         3.193188        -0.874484
 H        -2.437049         0.952601        -0.673445
 H        -1.624828        -0.501522         2.509519
 H        -2.553134        -0.712238         1.005426
