19
Iteration:   714
 O         0.243909        -0.356670         0.225585
 C        -0.652661         0.565878         0.808170
 C        -0.362308         1.767675         1.725630
 C        -1.815028         2.109199         1.281372
 C        -2.186171         3.395304         0.622332
 C        -1.351017         2.964506        -0.631369
 C        -1.466122         1.458480        -0.095607
 O        -2.732481         1.123918         1.852071
 C        -1.947848        -0.032303         1.586558
 H         0.879428        -0.900648         0.865797
 H        -0.103613         1.862982         2.891405
 H         0.148862         2.483731         1.143069
 H        -3.318022         3.343326         0.381987
 H        -1.978574         4.365738         1.053114
 H        -1.838732         3.143701        -1.589600
 H        -0.142363         3.192965        -0.846483
 H        -2.382546         1.036355        -0.793414
 H        -1.623982        -0.490241         2.541717
 H        -2.467019        -0.789279         0.902978
