19
Iteration:  2102charge 0 multiplicity 1
 O         0.237441        -0.416908         0.314501
 C        -0.654472         0.541494         0.832455
 C        -0.355009         1.717295         1.799199
 C        -1.796196         2.076907         1.224723
 C        -2.173463         3.410195         0.673837
 C        -1.360767         2.966670        -0.615993
 C        -1.500332         1.470690        -0.167756
 O        -2.770821         1.170060         1.770101
 C        -1.909702         0.008851         1.520392
 H         1.118189         0.028564         0.120566
 H        -0.263391         1.607482         2.903589
 H         0.399409         2.388684         1.536725
 H        -3.269621         3.450820         0.396886
 H        -1.878338         4.211793         1.256850
 H        -1.780317         3.317583        -1.631226
 H        -0.355047         3.183008        -0.487466
 H        -2.431633         0.941963        -0.559767
 H        -1.603091        -0.441500         2.402585
 H        -2.423394        -0.779448         0.861759
