19
Iteration:  4303charge 0 multiplicity 1
 O         0.230904        -0.408538         0.344828
 C        -0.749081         0.627523         0.810930
 C        -0.408891         1.815238         1.588241
 C        -1.890260         2.116867         1.192865
 C        -2.176185         3.487982         0.530936
 C        -1.313687         2.885626        -0.605253
 C        -1.602641         1.416860        -0.179619
 O        -2.608915         1.077624         1.964839
 C        -1.822066        -0.054047         1.665570
 H         1.083744        -0.180753         0.679436
 H        -0.278648         1.696900         2.651121
 H         0.301178         2.491103         1.093508
 H        -3.346909         3.667446         0.244336
 H        -1.749359         4.456736         0.933843
 H        -1.791875         3.110130        -1.618902
 H        -0.286236         3.127728        -0.642383
 H        -2.486676         1.000932        -0.559001
 H        -1.409831        -0.556744         2.530790
 H        -2.452282        -0.808761         1.051397
