19
Iteration:   595
 O         0.272176        -0.353450         0.302027
 C        -0.674837         0.593709         0.783018
 C        -0.425424         1.723513         1.678851
 C        -1.833441         2.064444         1.222871
 C        -2.202880         3.473752         0.580319
 C        -1.359437         2.968761        -0.664298
 C        -1.514985         1.438846        -0.174450
 O        -2.681596         1.130313         1.928498
 C        -1.859078        -0.013919         1.592912
 H         0.698757        -0.836725         1.049371
 H        -0.431554         1.417110         2.816984
 H         0.374074         2.352003         1.503249
 H        -3.307662         3.583090         0.420423
 H        -1.751874         4.326831         1.042320
 H        -1.882856         3.229653        -1.539546
 H        -0.279145         3.272130        -0.762048
 H        -2.315208         0.904389        -0.544973
 H        -1.709902        -0.659950         2.443617
 H        -2.417926        -0.735197         1.005657
