19
Iteration:  3844charge 0 multiplicity 1
 O         0.297488        -0.428903         0.457997
 C        -0.694401         0.629582         0.657012
 C        -0.365007         1.783519         1.641043
 C        -1.917316         2.089511         1.270502
 C        -2.266405         3.425637         0.576466
 C        -1.214541         3.011807        -0.713872
 C        -1.536340         1.502289        -0.149985
 O        -2.649400         1.116886         1.974254
 C        -1.907844        -0.111144         1.622621
 H         0.103314        -0.715477        -0.490659
 H        -0.126696         1.628288         2.694775
 H         0.295869         2.562246         1.177585
 H        -3.308888         3.376377         0.280329
 H        -2.223910         4.353971         1.239175
 H        -1.724545         3.145396        -1.617543
 H        -0.132129         3.260580        -0.509020
 H        -2.436092         1.049238        -0.697886
 H        -1.464566        -0.585710         2.435355
 H        -2.539933        -0.789038         1.096409
