19
Iteration:  1130charge 0 multiplicity 1
 O         0.286274        -0.328927         0.265410
 C        -0.719933         0.464638         0.763884
 C        -0.344316         1.764594         1.681183
 C        -1.888080         2.068994         1.226257
 C        -2.164032         3.436944         0.588420
 C        -1.333551         2.983633        -0.558020
 C        -1.550124         1.455128        -0.149342
 O        -2.700009         1.177389         1.861129
 C        -1.920933        -0.095062         1.626306
 H         0.725879        -0.557296         1.037023
 H         0.038918         1.752288         2.731678
 H         0.395349         2.306211         1.103914
 H        -3.220637         3.774256         0.255259
 H        -1.794410         4.304624         1.236559
 H        -1.951813         3.194426        -1.529502
 H        -0.280076         3.343965        -0.482467
 H        -2.274892         0.923844        -0.718667
 H        -1.505110        -0.423218         2.609943
 H        -2.481625        -0.873726         0.941719
