19
Iteration:   648
 O         0.253405        -0.313736         0.298035
 C        -0.751836         0.530286         0.804883
 C        -0.391023         1.831653         1.644662
 C        -1.933205         2.032921         1.179930
 C        -2.172891         3.478494         0.613345
 C        -1.262967         2.910618        -0.610164
 C        -1.553801         1.489310        -0.161142
 O        -2.656933         1.109124         1.971866
 C        -1.873555        -0.114006         1.546346
 H         0.672679        -0.700658         1.066181
 H        -0.192951         1.757808         2.793604
 H         0.225156         2.505542         1.102588
 H        -3.248485         3.737057         0.375856
 H        -1.744841         4.292068         1.161002
 H        -1.530279         3.159224        -1.600126
 H        -0.132864         3.285062        -0.668795
 H        -2.280259         0.855151        -0.783138
 H        -1.506696        -0.519648         2.491466
 H        -2.553738        -0.741930         0.887627
