19
Iteration:  2848charge 0 multiplicity 1
 O         0.328757        -0.361351         0.552952
 C        -0.677137         0.541827         0.701677
 C        -0.381454         1.686140         1.671871
 C        -1.914067         2.014151         1.161209
 C        -2.153884         3.457612         0.687566
 C        -1.318025         3.013883        -0.591369
 C        -1.592088         1.516958        -0.229074
 O        -2.700625         1.138240         1.895444
 C        -1.934326        -0.019363         1.476981
 H         0.496846        -0.635056        -0.283490
 H        -0.282533         1.400959         2.679603
 H         0.408437         2.454338         1.345174
 H        -3.134623         3.436092         0.361857
 H        -1.704316         4.326350         1.329712
 H        -1.617210         3.344408        -1.547452
 H        -0.225581         3.333331        -0.476614
 H        -2.371223         1.153004        -0.839678
 H        -1.526573        -0.797271         2.254270
 H        -2.460291        -0.711665         0.825884
