19
Iteration:   709
 O         0.240908        -0.337080         0.216005
 C        -0.672271         0.507970         0.837424
 C        -0.357637         1.793772         1.687463
 C        -1.803575         2.091905         1.262187
 C        -2.185097         3.427906         0.611133
 C        -1.326727         2.984581        -0.610747
 C        -1.465993         1.443890        -0.085911
 O        -2.707434         1.110299         1.835392
 C        -1.984285        -0.031737         1.607366
 H         0.744178        -0.726432         0.868973
 H        -0.154919         1.798922         2.682270
 H         0.285623         2.633322         1.248775
 H        -3.212646         3.202697         0.427726
 H        -2.036231         4.483910         0.936975
 H        -1.920815         3.055503        -1.536212
 H        -0.368087         3.237745        -0.658239
 H        -2.210538         1.028457        -0.655666
 H        -1.720355        -0.626068         2.494799
 H        -2.410755        -0.809646         1.017036
