19
Iteration:  3291charge 0 multiplicity 1
 O         0.205121        -0.417539         0.394018
 C        -0.666178         0.555741         0.751794
 C        -0.350836         1.760937         1.668780
 C        -1.849241         2.099595         1.176114
 C        -2.174944         3.425440         0.621314
 C        -1.329519         2.980418        -0.602006
 C        -1.549723         1.519730        -0.161034
 O        -2.701099         1.108825         1.855338
 C        -1.899162        -0.022410         1.604557
 H         1.154086        -0.195031         0.685395
 H        -0.224628         1.496841         2.753099
 H         0.380110         2.374541         1.231421
 H        -3.320976         3.218202         0.310959
 H        -2.058023         4.355801         1.204378
 H        -1.522445         2.898548        -1.596510
 H        -0.261940         3.427317        -0.532069
 H        -2.310757         1.097942        -0.881570
 H        -1.626300        -0.548850         2.522215
 H        -2.459974        -0.751831         0.958663
