19
Iteration:  4418
 O         0.300200        -0.362646         0.303381
 C        -0.713670         0.499505         0.771855
 C        -0.404867         1.751538         1.545789
 C        -1.865522         2.076333         1.154919
 C        -2.206065         3.394799         0.595053
 C        -1.370406         2.991491        -0.631192
 C        -1.572082         1.421719        -0.185671
 O        -2.593861         1.225686         1.926644
 C        -1.906407        -0.042233         1.783391
 H         0.793973        -0.643842         0.993816
 H        -0.439566         1.715691         2.700062
 H         0.356144         2.478518         1.222359
 H        -3.225734         3.407192         0.387509
 H        -1.942453         4.404390         1.069207
 H        -1.911881         3.127193        -1.551868
 H        -0.257892         3.276402        -0.564268
 H        -2.267409         0.775281        -0.840216
 H        -1.322185        -0.463675         2.697903
 H        -2.630721        -0.733391         1.150696
