19
Iteration:  3276
 O         0.274943        -0.430558         0.387585
 C        -0.710374         0.566325         0.765367
 C        -0.347428         1.753831         1.662570
 C        -1.889022         2.033896         1.215236
 C        -2.238108         3.443745         0.630844
 C        -1.297944         2.981863        -0.637459
 C        -1.513773         1.437344        -0.235234
 O        -2.728144         1.179138         1.895250
 C        -1.897167        -0.064473         1.558858
 H         1.025663        -0.257821         0.851610
 H        -0.240193         1.586078         2.712229
 H         0.421655         2.509264         1.294800
 H        -3.235113         3.608147         0.373334
 H        -1.698096         4.220210         1.167869
 H        -1.782937         3.693901        -1.467475
 H        -0.270305         3.243226        -0.512915
 H        -2.352974         0.924260        -0.610270
 H        -1.405846        -0.353250         2.554047
 H        -2.507409        -0.720930         0.945036
