19
Iteration:  3379charge 0 multiplicity 1
 O         0.452785        -0.295678         0.372574
 C        -0.732096         0.516118         0.785390
 C        -0.437279         1.730183         1.718424
 C        -1.891324         2.009024         1.204729
 C        -2.072662         3.522504         0.607839
 C        -1.351426         2.965554        -0.631418
 C        -1.575389         1.480257        -0.178866
 O        -2.724678         1.144653         1.865470
 C        -1.951449        -0.065529         1.581806
 H        -0.052046        -1.231806         0.189906
 H        -0.229189         1.394429         2.780189
 H         0.391743         2.354131         1.370444
 H        -3.134853         3.762963         0.294715
 H        -1.962184         4.348303         1.254859
 H        -1.741239         3.056191        -1.576422
 H        -0.225092         3.327483        -0.552822
 H        -2.375716         1.138094        -0.902166
 H        -1.651912        -0.478329         2.500791
 H        -2.539175        -0.878518         1.137812
