19
Iteration:  1593charge 0 multiplicity 1
 O         0.274494        -0.347316         0.257176
 C        -0.619639         0.577892         0.719444
 C        -0.433403         1.754516         1.771416
 C        -1.875442         2.111738         1.239990
 C        -2.191673         3.417611         0.626229
 C        -1.239848         3.001299        -0.589646
 C        -1.497302         1.469460        -0.161279
 O        -2.699015         1.093922         1.920521
 C        -1.932448        -0.053197         1.560455
 H        -0.066131        -1.197027         0.370251
 H        -0.431481         1.459793         2.816167
 H         0.265198         2.564356         1.366020
 H        -3.178891         3.532298         0.285140
 H        -1.900956         4.339105         1.222853
 H        -1.797671         3.138156        -1.466807
 H        -0.253350         3.432308        -0.816009
 H        -2.209452         0.931999        -0.733276
 H        -1.540184        -0.481592         2.457274
 H        -2.627847        -0.745835         1.015746
