19
Iteration:   789
 O         0.333099        -0.351232         0.236059
 C        -0.699721         0.564829         0.750061
 C        -0.372999         1.780260         1.706369
 C        -1.914420         2.087801         1.235356
 C        -2.175419         3.447655         0.654956
 C        -1.376997         2.890959        -0.581747
 C        -1.499480         1.406647        -0.188868
 O        -2.689790         1.145285         1.916088
 C        -1.936885         0.001324         1.590740
 H         0.747385        -0.709912         0.973827
 H        -0.035203         1.471160         2.754846
 H         0.364750         2.357548         1.284149
 H        -3.256261         3.453130         0.279804
 H        -1.994253         4.414983         1.056105
 H        -1.604528         3.285895        -1.498563
 H        -0.277325         3.197062        -0.573568
 H        -2.454549         0.973744        -0.719642
 H        -1.543757        -0.437981         2.446995
 H        -2.545347        -0.595436         0.915878
