19
Iteration:   988charge 0 multiplicity 1
 O         0.234839        -0.341271         0.266152
 C        -0.638131         0.624558         0.763114
 C        -0.306842         1.823153         1.661240
 C        -1.870651         2.051429         1.230774
 C        -2.175635         3.450880         0.658122
 C        -1.300118         2.905644        -0.625125
 C        -1.567989         1.411541        -0.207793
 O        -2.739276         1.120130         1.987410
 C        -1.901289        -0.063528         1.546237
 H         0.729878        -0.663443         1.041688
 H        -0.235891         1.633084         2.709783
 H         0.388814         2.698167         1.368780
 H        -3.179583         3.565549         0.229547
 H        -1.810876         4.383502         1.166135
 H        -1.852866         3.210616        -1.538525
 H        -0.178680         3.186775        -0.509274
 H        -2.370369         0.834707        -0.817548
 H        -1.756949        -0.723769         2.456861
 H        -2.552476        -0.762214         0.874411
