19
Iteration:  1357
 O         0.220414        -0.395937         0.290998
 C        -0.662903         0.579366         0.646625
 C        -0.446648         1.852060         1.657477
 C        -1.934899         2.062643         1.170136
 C        -2.228082         3.406778         0.635364
 C        -1.188475         2.917745        -0.571896
 C        -1.555264         1.492871        -0.212104
 O        -2.654445         1.166293         2.020514
 C        -1.881337        -0.099088         1.572681
 H         0.726779        -0.475045         1.217429
 H        -0.402020         1.545938         2.791557
 H         0.295119         2.490001         1.356147
 H        -3.245247         3.576294         0.251136
 H        -1.937190         4.145044         1.299080
 H        -1.336242         3.222476        -1.595662
 H        -0.114983         3.212735        -0.378100
 H        -2.363991         1.120727        -0.905904
 H        -1.218549        -0.665062         2.328585
 H        -2.708307        -0.778793         1.226390
