19
Iteration:   833charge 0 multiplicity 1
 O         0.218316        -0.370429         0.236616
 C        -0.681179         0.561446         0.794330
 C        -0.361040         1.803783         1.735476
 C        -1.874990         2.089359         1.288722
 C        -2.237518         3.472478         0.566654
 C        -1.299447         2.955992        -0.648054
 C        -1.513991         1.488060        -0.164456
 O        -2.716064         1.101077         1.975832
 C        -1.847573        -0.108313         1.535929
 H         0.662156        -0.780053         0.961908
 H        -0.091671         1.752078         2.852951
 H         0.247897         2.488820         1.259601
 H        -3.348452         3.647259         0.355098
 H        -1.959221         4.327574         1.160556
 H        -1.590316         3.140487        -1.637100
 H        -0.198739         3.333113        -0.763472
 H        -2.077502         0.826791        -0.947993
 H        -1.407968        -0.503377         2.461390
 H        -2.504999        -0.809024         0.953999
