19
Iteration:  4511charge 0 multiplicity 1
 O         0.266145        -0.414340         0.336679
 C        -0.748494         0.531310         0.725041
 C        -0.297591         1.826294         1.559057
 C        -1.841373         2.073409         1.203543
 C        -2.247295         3.424966         0.652983
 C        -1.337951         2.904809        -0.609986
 C        -1.596177         1.433380        -0.215198
 O        -2.659151         1.174454         1.919880
 C        -1.880618         0.016050         1.702854
 H         0.972845        -0.335076         1.125264
 H        -0.135509         1.668393         2.609260
 H         0.523331         2.399531         1.037562
 H        -3.256527         3.435493         0.172754
 H        -2.048847         4.326324         1.125772
 H        -1.816564         3.032720        -1.642112
 H        -0.262820         3.171831        -0.574599
 H        -2.365172         0.958896        -0.807397
 H        -1.399268        -0.322668         2.666757
 H        -2.548979        -0.752878         1.319616
