19
Iteration:  2311
 O         0.178496        -0.429150         0.399723
 C        -0.657890         0.572816         0.760899
 C        -0.408357         1.807299         1.729261
 C        -1.851282         2.057190         1.264726
 C        -2.147043         3.489877         0.631848
 C        -1.343783         2.973452        -0.547665
 C        -1.435165         1.479181        -0.130105
 O        -2.731373         1.053240         1.832476
 C        -1.881566        -0.054864         1.440126
 H         0.982164        -0.271931        -0.074552
 H        -0.303597         1.811442         2.798417
 H         0.395772         2.585572         1.409785
 H        -3.235137         3.870525         0.437935
 H        -1.605444         4.401838         1.145692
 H        -1.956035         3.016400        -1.414958
 H        -0.352907         3.455898        -0.586860
 H        -2.209238         0.872072        -0.746887
 H        -1.698009        -0.681673         2.244866
 H        -2.491497        -0.685593         0.647543
