19
Iteration:  4732
 O         0.221886        -0.360399         0.257441
 C        -0.731328         0.617153         0.797836
 C        -0.397367         1.844948         1.650959
 C        -1.945784         2.104135         1.169688
 C        -2.110590         3.472824         0.553140
 C        -1.346029         2.833346        -0.707845
 C        -1.555823         1.426854        -0.090294
 O        -2.717219         1.099049         1.983959
 C        -1.781096        -0.042438         1.655640
 H         0.687488        -0.724262         0.924747
 H         0.021556         1.794760         2.680174
 H         0.167709         2.653406         1.212773
 H        -3.071105         3.855800         0.334591
 H        -1.575131         4.181746         1.153277
 H        -1.711246         2.979046        -1.724944
 H        -0.224128         3.262641        -0.671699
 H        -2.359642         0.711902        -0.508555
 H        -1.317376        -0.416213         2.575131
 H        -2.302295        -0.930859         1.168968
