19
Iteration:  2107
 O         0.211017        -0.415419         0.313003
 C        -0.639891         0.507970         0.841974
 C        -0.367839         1.722925         1.833491
 C        -1.860362         2.077405         1.252009
 C        -2.175071         3.446308         0.663733
 C        -1.382923         2.914296        -0.618175
 C        -1.512078         1.467597        -0.153658
 O        -2.720860         1.174021         1.756694
 C        -1.871598         0.039724         1.459136
 H         1.073473        -0.054860         0.217772
 H        -0.294220         1.543479         2.911514
 H         0.413315         2.464216         1.410622
 H        -3.195430         3.352160         0.354000
 H        -1.885104         4.310661         1.385548
 H        -1.703166         3.378936        -1.535711
 H        -0.255350         3.265557        -0.631718
 H        -2.367982         1.028536        -0.642222
 H        -1.549530        -0.551650         2.506955
 H        -2.384042        -0.725398         0.921482
