19
Iteration:  2289charge 0 multiplicity 1
 O         0.246040        -0.516783         0.392487
 C        -0.674125         0.579878         0.759945
 C        -0.418111         1.751527         1.733152
 C        -1.907212         2.021583         1.207713
 C        -2.174895         3.424858         0.746382
 C        -1.311634         3.076005        -0.684253
 C        -1.487705         1.529151        -0.214584
 O        -2.702812         1.127292         1.877944
 C        -1.898273        -0.031152         1.495310
 H         1.201607        -0.112793         0.430834
 H        -0.367622         1.528734         2.793373
 H         0.438827         2.504319         1.519158
 H        -3.223934         3.610610         0.273853
 H        -1.832430         4.364347         1.323326
 H        -1.940119         3.399205        -1.486623
 H        -0.258172         3.360929        -0.651195
 H        -2.236524         0.918422        -0.843928
 H        -1.532940        -0.541278         2.327612
 H        -2.498028        -0.762884         0.823940
