19
Iteration:   473charge 0 multiplicity 1
 O         0.287508        -0.342058         0.333116
 C        -0.708832         0.543141         0.755901
 C        -0.512101         1.776004         1.620787
 C        -1.946214         2.043188         1.122932
 C        -2.118039         3.442109         0.630564
 C        -1.271520         3.007059        -0.614342
 C        -1.603439         1.427166        -0.235146
 O        -2.594589         1.180438         2.027779
 C        -1.858880        -0.116920         1.572684
 H         0.679578        -0.730113         1.222417
 H        -0.573049         1.685242         2.667586
 H         0.328129         2.527350         1.272548
 H        -3.108320         3.585578         0.137858
 H        -1.872451         4.319538         1.255397
 H        -1.796835         3.432901        -1.478353
 H        -0.217376         3.216403        -0.414590
 H        -2.275914         0.942895        -0.852921
 H        -1.547772        -0.761157         2.581586
 H        -2.488910        -0.824172         0.950317
