19
Iteration:  3383
 O         0.440957        -0.313509         0.371303
 C        -0.749763         0.519544         0.760745
 C        -0.440032         1.723882         1.750651
 C        -1.902770         2.033337         1.201767
 C        -2.081248         3.511053         0.614698
 C        -1.330347         2.953819        -0.600996
 C        -1.565798         1.495013        -0.188239
 O        -2.722297         1.152380         1.863557
 C        -1.930985        -0.069170         1.570813
 H         0.132034        -1.156937         0.273077
 H        -0.393382         1.436550         2.792898
 H         0.401021         2.322183         1.234800
 H        -3.232477         3.685573         0.348762
 H        -1.836713         4.466184         1.219428
 H        -1.832485         3.097416        -1.618591
 H        -0.325243         3.233618        -0.696513
 H        -2.346411         1.040936        -0.873864
 H        -1.535988        -0.417279         2.560359
 H        -2.527338        -0.866517         1.050862
