19
Iteration:  2538
 O         0.285895        -0.380238         0.378434
 C        -0.721024         0.536809         0.714371
 C        -0.490114         1.775411         1.716216
 C        -1.889168         2.063297         1.188375
 C        -2.152724         3.407847         0.648371
 C        -1.229247         2.934664        -0.516580
 C        -1.533509         1.474596        -0.152207
 O        -2.689805         1.136491         1.894184
 C        -1.920875        -0.026651         1.486072
 H         0.979145         0.245304         0.050041
 H        -0.373190         1.482000         2.717964
 H         0.412940         2.390608         1.351019
 H        -3.097151         3.631643         0.095794
 H        -2.014066         4.159093         1.371437
 H        -1.578493         3.250489        -1.550228
 H        -0.245515         3.245412        -0.655867
 H        -2.307046         1.013008        -0.707048
 H        -1.562436        -0.623143         2.410983
 H        -2.531584        -0.623327         0.903543
