19
Iteration:  2571
 O         0.280106        -0.522675         0.482766
 C        -0.728115         0.511721         0.722530
 C        -0.424006         1.786209         1.627926
 C        -1.913079         2.099777         1.148961
 C        -2.181644         3.539921         0.641135
 C        -1.298175         3.140930        -0.602699
 C        -1.486243         1.550840        -0.218595
 O        -2.702956         0.972810         1.944403
 C        -1.887377        -0.060217         1.489499
 H         1.066144        -0.158601         0.697082
 H        -0.219098         1.633475         2.672738
 H         0.408870         2.469510         1.198002
 H        -3.182674         3.783408         0.209401
 H        -1.740205         4.209598         1.340913
 H        -1.889364         3.319052        -1.589183
 H        -0.315515         3.315727        -0.396064
 H        -2.304455         1.074198        -0.715164
 H        -1.549930        -0.674447         2.449570
 H        -2.505261        -0.746373         0.954306
