19
Iteration:  3856
 O         0.268434        -0.404770         0.421482
 C        -0.688315         0.501204         0.805913
 C        -0.407455         1.785311         1.662959
 C        -1.868826         2.117599         1.226345
 C        -2.292758         3.493023         0.611236
 C        -1.280082         2.976581        -0.694900
 C        -1.552540         1.569813        -0.209786
 O        -2.637227         1.061738         1.970623
 C        -1.816959        -0.069284         1.597922
 H        -0.014539        -0.919924        -0.266586
 H        -0.293026         1.547005         2.759908
 H         0.472117         2.363047         1.318863
 H        -3.197748         3.480480         0.101212
 H        -2.060231         4.495171         1.113378
 H        -1.563138         3.157442        -1.751446
 H        -0.260954         3.428772        -0.803129
 H        -2.304972         1.025702        -0.853507
 H        -1.554294        -0.591185         2.489894
 H        -2.452263        -0.721249         0.994434
