19
Iteration:  4333charge 0 multiplicity 1
 O         0.358736        -0.331924         0.226351
 C        -0.717213         0.577401         0.791649
 C        -0.366974         1.716890         1.626265
 C        -1.901734         2.070066         1.192778
 C        -2.177402         3.367081         0.566746
 C        -1.340811         2.954983        -0.635857
 C        -1.540563         1.336865        -0.240739
 O        -2.716040         1.264978         2.050114
 C        -1.915737         0.012543         1.703619
 H         0.981430        -0.724764         1.004830
 H        -0.298125         1.586886         2.762647
 H         0.243740         2.460496         1.061487
 H        -3.284024         3.293010         0.210353
 H        -1.896255         4.286762         0.987132
 H        -1.886812         3.209766        -1.568418
 H        -0.221463         3.198086        -0.748260
 H        -2.403343         0.799274        -0.600301
 H        -1.490534        -0.547053         2.563984
 H        -2.518531        -0.646986         1.208290
