19
Iteration:  4655
 O         0.197716        -0.433748         0.311910
 C        -0.639919         0.535582         0.764259
 C        -0.390824         1.852985         1.642228
 C        -1.855923         2.095172         1.272930
 C        -2.262082         3.384683         0.552470
 C        -1.349313         2.962004        -0.666057
 C        -1.503058         1.439700        -0.108985
 O        -2.665640         1.192976         2.000258
 C        -1.838195         0.003417         1.552579
 H         0.942530        -0.838203         0.973038
 H        -0.059011         1.763829         2.692670
 H         0.232955         2.380807         0.963685
 H        -3.217630         3.468098         0.149858
 H        -1.948131         4.297927         0.825276
 H        -1.866687         2.889288        -1.581634
 H        -0.203906         3.273543        -0.715211
 H        -2.353853         0.840808        -0.584457
 H        -1.476423        -0.485838         2.468563
 H        -2.511109        -0.748196         1.064072
