19
Iteration:  2892charge 0 multiplicity 1
 O         0.289293        -0.415719         0.422374
 C        -0.628456         0.563707         0.810320
 C        -0.417231         1.734786         1.698589
 C        -1.894321         2.085406         1.164343
 C        -2.226627         3.399425         0.633367
 C        -1.285922         3.117491        -0.615448
 C        -1.413323         1.484386        -0.184506
 O        -2.724529         1.075143         1.916526
 C        -1.919756        -0.024325         1.514020
 H        -0.189001        -0.789288        -0.243128
 H        -0.355221         1.588622         2.742423
 H         0.381162         2.393352         1.271172
 H        -3.230148         3.424491         0.288887
 H        -1.853073         4.295465         1.333147
 H        -1.692282         3.431325        -1.570580
 H        -0.255385         3.495076        -0.664945
 H        -2.093726         0.976773        -0.784789
 H        -1.852174        -0.721836         2.425180
 H        -2.479921        -0.708367         0.899986
