19
Iteration:  4061charge 0 multiplicity 1
 O         0.282653        -0.359747         0.324480
 C        -0.710352         0.576939         0.742925
 C        -0.383992         1.713295         1.727772
 C        -1.834428         2.053606         1.226504
 C        -2.129465         3.466806         0.523307
 C        -1.360997         2.946139        -0.669948
 C        -1.585255         1.432129        -0.207571
 O        -2.753778         1.163947         1.952584
 C        -1.857009        -0.055545         1.686067
 H         1.102492         0.026653         0.383501
 H        -0.121981         1.432587         2.748811
 H         0.337270         2.421665         1.375819
 H        -3.195069         3.562345         0.311677
 H        -1.815815         4.365281         0.944948
 H        -1.929005         3.159327        -1.508434
 H        -0.366204         3.476997        -0.646879
 H        -2.274193         0.829601        -0.766566
 H        -1.360225        -0.604192         2.566284
 H        -2.523388        -0.871736         1.169996
