19
Iteration:  1895
 O         0.308669        -0.358746         0.353396
 C        -0.705227         0.513037         0.815381
 C        -0.419215         1.708138         1.724257
 C        -1.891801         2.084469         1.287585
 C        -2.181892         3.453068         0.597125
 C        -1.258137         2.981501        -0.555269
 C        -1.495519         1.507159        -0.090689
 O        -2.694781         1.146036         1.783315
 C        -1.934965        -0.094538         1.546572
 H         0.233118        -0.203496        -0.559497
 H        -0.276942         1.657256         2.761443
 H         0.273699         2.420034         1.191242
 H        -3.196655         3.503481         0.170652
 H        -1.824434         4.310603         1.162008
 H        -1.677942         3.186365        -1.544525
 H        -0.241223         3.329683        -0.636285
 H        -2.349727         0.998158        -0.639271
 H        -1.629341        -0.613601         2.480605
 H        -2.505121        -0.753489         0.894613
