19
Iteration:  1496
 O         0.219623        -0.417747         0.250083
 C        -0.690764         0.549277         0.784711
 C        -0.419040         1.721245         1.785473
 C        -1.845067         2.074274         1.266564
 C        -2.182445         3.461960         0.623798
 C        -1.323180         2.965560        -0.660408
 C        -1.490989         1.475390        -0.172009
 O        -2.695302         1.175296         1.921314
 C        -1.866260        -0.049244         1.552054
 H         1.091887        -0.394494         0.491702
 H        -0.494846         1.573357         2.840000
 H         0.274747         2.407729         1.328639
 H        -3.213922         3.384988         0.280919
 H        -1.928953         4.481950         1.147716
 H        -1.822100         3.194754        -1.560212
 H        -0.306739         3.461962        -0.846688
 H        -2.307892         0.934897        -0.695048
 H        -1.481229        -0.426574         2.441657
 H        -2.406132        -0.855203         1.026930
