19
Iteration:     9charge 0 multiplicity 1
 O         0.261755        -0.364492         0.264924
 C        -0.669721         0.551714         0.799452
 C        -0.380482         1.824097         1.694397
 C        -1.875573         2.121212         1.197057
 C        -2.150312         3.390155         0.543250
 C        -1.261010         2.925022        -0.615107
 C        -1.529289         1.481880        -0.142138
 O        -2.706210         1.131389         1.901741
 C        -1.953763        -0.053992         1.645007
 H         0.750775        -0.945077         0.938046
 H        -0.208916         1.708837         2.894944
 H         0.256966         2.357354         1.102913
 H        -3.242124         3.343527         0.290182
 H        -1.960736         4.259074         1.180919
 H        -1.882721         2.979690        -1.436544
 H        -0.230215         3.394031        -0.712736
 H        -2.439499         1.235251        -0.547184
 H        -1.533167        -0.617019         2.474102
 H        -2.572542        -0.596686         1.040365
