19
Iteration:  1068
 O         0.270751        -0.340717         0.281751
 C        -0.713918         0.543532         0.781298
 C        -0.412994         1.871436         1.549840
 C        -1.849477         2.115837         1.171228
 C        -2.242005         3.477715         0.621001
 C        -1.228997         2.979801        -0.558357
 C        -1.543191         1.395067        -0.167167
 O        -2.644545         1.081206         2.021157
 C        -1.927279        -0.123055         1.611900
 H         0.386973        -0.985236         0.973184
 H        -0.262099         1.708711         2.637757
 H         0.307554         2.475822         1.120761
 H        -3.193052         3.613554         0.230454
 H        -1.988162         4.293267         1.254840
 H        -1.475815         3.198386        -1.707911
 H        -0.269102         3.290679        -0.407173
 H        -2.280274         1.036949        -1.030350
 H        -1.701909        -0.733178         2.470528
 H        -2.543593        -0.602014         0.856969
