19
Iteration:  4547charge 0 multiplicity 1
 O         0.243880        -0.442841         0.290134
 C        -0.652227         0.550484         0.743299
 C        -0.359296         1.856761         1.685490
 C        -1.928139         2.121530         1.212161
 C        -2.187816         3.498912         0.509252
 C        -1.376265         2.891925        -0.648921
 C        -1.552471         1.426381        -0.182742
 O        -2.604915         1.123874         2.041308
 C        -1.873330        -0.015790         1.624361
 H         0.733173        -0.860397         1.140133
 H        -0.222018         1.796634         2.780682
 H         0.487502         2.425191         1.333669
 H        -3.249801         3.491103         0.209811
 H        -2.011270         4.514392         1.181827
 H        -1.952223         2.932680        -1.550514
 H        -0.413022         3.452086        -1.027501
 H        -2.255288         0.845565        -0.883740
 H        -1.644922        -0.469830         2.552084
 H        -2.554905        -0.719335         1.006193
