19
Iteration:  3582
 O         0.229836        -0.429526         0.324981
 C        -0.678103         0.615575         0.762279
 C        -0.382419         1.816406         1.682950
 C        -1.865732         2.097396         1.248876
 C        -2.240070         3.410892         0.599637
 C        -1.335464         2.987748        -0.605594
 C        -1.478168         1.428446        -0.234986
 O        -2.672022         1.133211         1.976702
 C        -1.849168        -0.033855         1.517825
 H         0.377457        -1.123115         1.024279
 H        -0.407964         1.779207         2.782596
 H         0.359869         2.526762         1.409364
 H        -3.262666         3.329430         0.326370
 H        -1.921884         4.367052         1.139586
 H        -1.549538         3.091575        -1.643639
 H        -0.341497         3.451912        -0.541359
 H        -2.238788         1.007802        -0.882274
 H        -1.561896        -0.652728         2.344901
 H        -2.444340        -0.638857         0.920497
