19
Iteration:  2005
 O         0.299678        -0.428847         0.303951
 C        -0.681987         0.492785         0.788855
 C        -0.409280         1.711146         1.824104
 C        -1.838527         2.060331         1.197776
 C        -2.239705         3.476242         0.591761
 C        -1.333217         3.084298        -0.639351
 C        -1.403270         1.497307        -0.159391
 O        -2.648433         1.141002         1.815459
 C        -2.049292        -0.117855         1.628731
 H         1.056906         0.225257         0.045131
 H        -0.171771         1.546963         2.887547
 H         0.357377         2.318145         1.488037
 H        -3.286079         3.549321         0.389623
 H        -1.900798         4.283468         1.149024
 H        -1.934018         3.199110        -1.606661
 H        -0.379498         3.423897        -0.604385
 H        -2.317122         1.143468        -0.727220
 H        -1.718097        -0.468438         2.660244
 H        -2.677948        -0.806278         0.976241
