19
Iteration:  2843
 O         0.337255        -0.365190         0.537669
 C        -0.699489         0.591048         0.706855
 C        -0.390559         1.732005         1.706811
 C        -1.924811         2.023534         1.139955
 C        -2.120185         3.430263         0.679281
 C        -1.292043         3.008275        -0.584311
 C        -1.573481         1.520261        -0.250710
 O        -2.707845         1.129642         1.917716
 C        -1.928360        -0.089257         1.500535
 H         0.427417        -0.629120        -0.483640
 H        -0.159806         1.326133         2.764454
 H         0.325069         2.445251         1.388799
 H        -3.279651         3.551694         0.408386
 H        -1.683782         4.263598         1.211248
 H        -1.623612         3.360120        -1.617336
 H        -0.279546         3.390334        -0.558627
 H        -2.419711         1.173253        -0.938832
 H        -1.630245        -0.732387         2.273909
 H        -2.614568        -0.705601         0.856950
