19
Iteration:  2184charge 0 multiplicity 1
 O         0.297276        -0.406676         0.403671
 C        -0.679776         0.596410         0.764664
 C        -0.394798         1.718009         1.731821
 C        -1.869616         2.041207         1.264971
 C        -2.148202         3.434204         0.657537
 C        -1.303454         3.004551        -0.600221
 C        -1.542807         1.478706        -0.192192
 O        -2.757798         1.139272         1.826380
 C        -1.947660        -0.049449         1.544974
 H         0.802581        -0.244487        -0.501265
 H        -0.231577         1.404590         2.746380
 H         0.271479         2.461489         1.177010
 H        -3.214484         3.557483         0.517876
 H        -1.837433         4.387015         1.233009
 H        -1.504768         3.332643        -1.613627
 H        -0.168918         3.304130        -0.560683
 H        -2.272320         0.941177        -0.781278
 H        -1.455065        -0.550829         2.557297
 H        -2.408236        -0.733730         0.852669
