19
Iteration:  3652charge 0 multiplicity 1
 O         0.376703        -0.351908         0.391299
 C        -0.741015         0.501122         0.723406
 C        -0.414794         1.854687         1.632493
 C        -1.892626         2.074003         1.132233
 C        -2.155158         3.442790         0.656322
 C        -1.291139         2.917118        -0.620936
 C        -1.593124         1.458983        -0.197457
 O        -2.713384         1.149864         1.953897
 C        -1.902541        -0.059552         1.670016
 H         0.380924        -0.501089        -0.505282
 H        -0.419640         1.600933         2.696420
 H         0.601830         2.279257         1.410026
 H        -3.242441         3.520980         0.356371
 H        -1.635754         4.217512         1.304034
 H        -1.750431         3.168257        -1.633548
 H        -0.240234         3.267069        -0.788399
 H        -2.406167         1.023189        -0.770448
 H        -1.606011        -0.539957         2.642691
 H        -2.426307        -0.803210         1.178789
