19
Iteration:  2805charge 0 multiplicity 1
 O         0.325200        -0.303987         0.269022
 C        -0.688259         0.619570         0.825604
 C        -0.445916         1.759710         1.774197
 C        -1.949756         2.065459         1.195048
 C        -2.141514         3.483070         0.578881
 C        -1.176157         2.914521        -0.539321
 C        -1.525546         1.455765        -0.131855
 O        -2.778079         1.110842         1.852910
 C        -1.884120        -0.100873         1.574261
 H        -0.059344        -0.508952        -0.596022
 H        -0.376431         1.516300         2.783225
 H         0.374870         2.497785         1.459286
 H        -3.095923         3.639939         0.234636
 H        -1.679910         4.221129         1.294391
 H        -1.686805         3.031107        -1.451290
 H        -0.074977         3.178505        -0.517399
 H        -2.298969         0.875633        -0.679849
 H        -1.707913        -0.610052         2.634283
 H        -2.428871        -0.845909         0.928031
