19
Iteration:   488
 O         0.254766        -0.345558         0.316562
 C        -0.699116         0.583102         0.743704
 C        -0.442808         1.842830         1.638161
 C        -1.899258         2.042184         1.193776
 C        -2.187439         3.469851         0.626466
 C        -1.289460         2.873403        -0.601309
 C        -1.518211         1.434734        -0.198138
 O        -2.662351         1.100815         1.974201
 C        -1.889660        -0.013487         1.548133
 H         0.750801        -0.725464         1.102115
 H        -0.260500         1.592852         2.774083
 H         0.237251         2.490451         1.296389
 H        -3.261508         3.776774         0.600341
 H        -1.637643         4.179168         1.248935
 H        -1.589564         2.983899        -1.624367
 H        -0.255390         3.287035        -0.588576
 H        -2.322895         0.920840        -0.805798
 H        -1.469597        -0.589939         2.455852
 H        -2.577633        -0.522860         0.835319
