19
Iteration:   320
 O         0.199727        -0.437866         0.227326
 C        -0.681108         0.535777         0.791940
 C        -0.483674         1.848529         1.826009
 C        -1.851177         2.113961         1.236134
 C        -2.122413         3.434901         0.540068
 C        -1.377724         2.982092        -0.666990
 C        -1.483017         1.445060        -0.125960
 O        -2.655591         1.143241         1.927157
 C        -1.839997        -0.119852         1.557991
 H         0.945522        -0.523106         0.979271
 H        -0.232382         1.963035         2.815286
 H         0.367720         2.567914         1.338953
 H        -3.203000         3.521712         0.360972
 H        -1.780039         4.338289         1.082802
 H        -1.820617         3.171585        -1.637505
 H        -0.439933         3.486265        -0.911461
 H        -2.323449         1.023903        -0.594336
 H        -1.735308        -0.621004         2.586005
 H        -2.433659        -0.837584         0.954221
