19
Iteration:  2622
 O         0.289785        -0.390562         0.377595
 C        -0.670796         0.532291         0.768509
 C        -0.445816         1.689565         1.790701
 C        -1.856593         2.086395         1.223865
 C        -2.185868         3.473196         0.559445
 C        -1.274779         3.016646        -0.613867
 C        -1.499412         1.522065        -0.148576
 O        -2.725646         1.133801         1.903248
 C        -1.908865        -0.114298         1.527990
 H         0.708342        -0.052560        -0.471447
 H        -0.347172         1.403347         2.795796
 H         0.373611         2.413789         1.481367
 H        -3.286953         3.548250         0.198757
 H        -1.924463         4.353339         1.110184
 H        -1.726234         3.060489        -1.567856
 H        -0.294727         3.510146        -0.514462
 H        -2.143116         0.992320        -0.826115
 H        -1.646902        -0.584474         2.463324
 H        -2.649072        -0.742267         0.908114
