19
Iteration:  3226
 O         0.274821        -0.312237         0.292179
 C        -0.700779         0.596895         0.796869
 C        -0.450331         1.755129         1.638082
 C        -1.870563         2.030524         1.233764
 C        -2.101127         3.489744         0.557292
 C        -1.283203         2.887780        -0.603508
 C        -1.576882         1.444722        -0.117662
 O        -2.704602         1.121518         1.918981
 C        -1.896273        -0.055688         1.556550
 H         0.792313        -0.516791         1.198482
 H        -0.299306         1.514831         2.746921
 H         0.136352         2.578169         1.286823
 H        -3.253770         3.394259         0.402376
 H        -1.688073         4.346992         1.120250
 H        -1.610430         3.110277        -1.530710
 H        -0.276702         3.431912        -0.515469
 H        -2.341075         0.852970        -0.734861
 H        -1.496830        -0.571162         2.378233
 H        -2.554434        -0.611094         0.887975
