19
Iteration:  4648
 O         0.194712        -0.467519         0.279480
 C        -0.692433         0.584780         0.847992
 C        -0.399617         1.873952         1.651581
 C        -1.866749         2.128632         1.189297
 C        -2.278797         3.415356         0.587429
 C        -1.317521         2.867446        -0.660602
 C        -1.539564         1.471973        -0.141502
 O        -2.600147         1.151331         1.958059
 C        -1.819458        -0.012240         1.609655
 H         0.775432        -0.822806         1.056968
 H        -0.162465         1.787750         2.722616
 H         0.281222         2.496283         1.035891
 H        -3.388997         3.465549         0.366550
 H        -1.772805         4.418346         1.030302
 H        -1.762533         2.948835        -1.698059
 H        -0.357547         3.404236        -0.674056
 H        -2.235696         0.866574        -0.770398
 H        -1.486230        -0.492146         2.518634
 H        -2.451958        -0.705000         0.965180
