19
Iteration:  4670
 O         0.294675        -0.424114         0.293337
 C        -0.681795         0.580143         0.777370
 C        -0.281040         1.766076         1.613117
 C        -1.847867         2.113747         1.237238
 C        -2.206909         3.421040         0.498274
 C        -1.368618         2.902585        -0.692900
 C        -1.537767         1.461105        -0.156360
 O        -2.689567         1.190326         2.029785
 C        -1.945309        -0.049758         1.661983
 H         0.801698        -0.447301         1.069960
 H        -0.115547         1.552497         2.682859
 H         0.350243         2.606539         1.266183
 H        -3.280047         3.140209         0.339198
 H        -2.198063         4.397286         1.165734
 H        -1.806800         3.252953        -1.674940
 H        -0.404951         3.412317        -0.704513
 H        -2.397948         0.988539        -0.698755
 H        -1.639944        -0.602961         2.543389
 H        -2.571805        -0.632214         0.935352
