19
Iteration:  1405charge 0 multiplicity 1
 O         0.274957        -0.363701         0.267007
 C        -0.680368         0.539656         0.813010
 C        -0.369395         1.773879         1.698750
 C        -1.845002         2.119124         1.308748
 C        -2.149552         3.411275         0.617089
 C        -1.354131         2.919641        -0.636086
 C        -1.539106         1.519118        -0.051409
 O        -2.693235         1.135148         1.837624
 C        -1.887898        -0.056506         1.510372
 H         0.361814        -1.058319         0.933658
 H        -0.309924         1.562995         2.804284
 H         0.281807         2.574167         1.142342
 H        -3.231114         3.572449         0.312588
 H        -1.641450         4.409020         1.055051
 H        -1.824304         2.914209        -1.705282
 H        -0.448097         3.389289        -0.861090
 H        -2.461776         1.164217        -0.435830
 H        -1.723735        -0.557501         2.451853
 H        -2.417722        -0.758144         0.861114
