19
Iteration:  1845
 O         0.307420        -0.377558         0.455307
 C        -0.711167         0.561741         0.706446
 C        -0.430558         1.790511         1.672822
 C        -1.910125         2.055405         1.135035
 C        -2.190433         3.438145         0.688972
 C        -1.194860         2.992315        -0.533758
 C        -1.572715         1.473302        -0.208063
 O        -2.703976         1.125934         1.940143
 C        -1.917423        -0.054875         1.489423
 H         0.341209        -0.565264        -0.482612
 H        -0.347717         1.526641         2.826577
 H         0.452012         2.183877         1.273980
 H        -3.153486         3.375055         0.261026
 H        -1.785107         4.175984         1.441503
 H        -1.481421         3.230757        -1.641395
 H        -0.205525         3.378498        -0.342146
 H        -2.354535         1.146416        -0.880600
 H        -1.417246        -0.566781         2.370554
 H        -2.594069        -0.668295         0.804677
