19
Iteration:   507charge 0 multiplicity 1
 O         0.271454        -0.360029         0.249190
 C        -0.616523         0.586876         0.802766
 C        -0.336739         1.781416         1.709220
 C        -1.903442         2.126320         1.277853
 C        -2.124684         3.452061         0.589130
 C        -1.358232         2.955210        -0.641993
 C        -1.539163         1.458476        -0.093164
 O        -2.772948         1.134658         1.889578
 C        -1.912893        -0.129306         1.563481
 H         0.829567        -0.783547         1.018191
 H        -0.036616         1.727031         2.788985
 H         0.339758         2.465900         1.202870
 H        -3.171166         3.416250         0.166771
 H        -1.906480         4.429683         0.987460
 H        -1.872211         3.162150        -1.533745
 H        -0.328680         3.269836        -0.924785
 H        -2.249537         0.917844        -0.580106
 H        -1.609647        -0.623792         2.616170
 H        -2.491054        -0.877460         0.908670
