19
Iteration:  1763charge 0 multiplicity 1
 O         0.339433        -0.285443         0.419230
 C        -0.723505         0.473566         0.718147
 C        -0.462436         1.779934         1.593551
 C        -1.946406         2.060221         1.225135
 C        -2.136669         3.511075         0.656617
 C        -1.157868         2.995873        -0.572389
 C        -1.536143         1.549363        -0.155459
 O        -2.713258         1.051983         1.971186
 C        -1.951107        -0.161101         1.489561
 H         0.084224        -1.084153         0.078000
 H        -0.191850         1.518251         2.573338
 H         0.367860         2.472148         1.148305
 H        -3.151911         3.832820         0.209981
 H        -2.006565         4.357235         1.284157
 H        -1.440123         3.249296        -1.553833
 H        -0.101233         3.410333        -0.447873
 H        -2.350352         1.107445        -0.821334
 H        -1.739331        -0.673770         2.377827
 H        -2.534082        -0.693715         0.811831
