19
Iteration:  1561
 O         0.356307        -0.339354         0.467016
 C        -0.677025         0.502779         0.695297
 C        -0.401711         1.670421         1.600062
 C        -1.891215         2.083331         1.202636
 C        -2.222693         3.473824         0.658898
 C        -1.257692         3.023314        -0.560481
 C        -1.610002         1.463099        -0.211776
 O        -2.650720         1.126444         1.913573
 C        -1.965712        -0.056305         1.551333
 H         0.211645        -0.734198        -0.464967
 H        -0.159680         1.647064         2.662566
 H         0.422154         2.390654         1.198932
 H        -3.248040         3.651727         0.367512
 H        -1.710065         4.299069         1.302348
 H        -1.590839         3.379835        -1.499702
 H        -0.210485         3.378398        -0.423891
 H        -2.471053         1.049559        -0.749658
 H        -1.600098        -0.478282         2.421791
 H        -2.633846        -0.836562         1.230133
