19
Iteration:  2057
 O         0.263867        -0.398285         0.475010
 C        -0.701786         0.571465         0.731302
 C        -0.507674         1.835464         1.616115
 C        -1.951067         2.056745         1.111756
 C        -2.137626         3.480893         0.656239
 C        -1.180021         3.011239        -0.535180
 C        -1.595328         1.434413        -0.237071
 O        -2.659313         1.081948         1.978838
 C        -1.861388        -0.114154         1.514150
 H         0.578304        -0.302306        -0.437826
 H        -0.521560         1.621380         2.670952
 H         0.419550         2.444167         1.427597
 H        -3.241649         3.588366         0.444379
 H        -1.713965         4.210601         1.308537
 H        -1.356233         3.441058        -1.531575
 H        -0.188810         3.299662        -0.183181
 H        -2.420506         1.119150        -0.907606
 H        -1.554573        -0.696990         2.293153
 H        -2.473399        -0.713618         0.735079
