19
Iteration:  1325charge 0 multiplicity 1
 O         0.235065        -0.341316         0.258073
 C        -0.659291         0.556994         0.805197
 C        -0.384999         1.731645         1.691022
 C        -1.893610         2.081378         1.220854
 C        -2.156262         3.479815         0.569743
 C        -1.293753         2.953162        -0.646051
 C        -1.497328         1.501291        -0.056684
 O        -2.759904         1.130461         1.914161
 C        -1.874521        -0.124412         1.567680
 H         0.977766        -0.522506         0.804697
 H        -0.227666         1.615941         2.897237
 H         0.353804         2.330902         1.266379
 H        -3.228943         3.642942         0.184648
 H        -1.763919         4.336223         1.134258
 H        -1.853788         3.010316        -1.604193
 H        -0.280243         3.444448        -0.767593
 H        -2.322398         1.055160        -0.662184
 H        -1.538244        -0.704042         2.483382
 H        -2.622147        -0.726037         1.044380
