19
Iteration:  4441
 O         0.315258        -0.377608         0.257480
 C        -0.704153         0.553072         0.748632
 C        -0.312161         1.769306         1.626172
 C        -1.917771         2.126665         1.248513
 C        -2.194602         3.424545         0.523342
 C        -1.339531         2.843634        -0.714471
 C        -1.558276         1.466559        -0.153497
 O        -2.740770         1.171429         2.043380
 C        -1.892282        -0.026412         1.666788
 H         1.099445        -0.338875         0.970614
 H        -0.032962         1.704705         2.737064
 H         0.403190         2.428924         1.126561
 H        -3.239313         3.563360         0.428169
 H        -1.819786         4.242458         1.121811
 H        -1.853934         3.190618        -1.620357
 H        -0.280170         3.185388        -0.624722
 H        -2.374400         0.880424        -0.650520
 H        -1.458879        -0.537398         2.635481
 H        -2.630817        -0.642329         1.073230
