19
Iteration:  1610
 O         0.207369        -0.353468         0.230467
 C        -0.682735         0.592982         0.804005
 C        -0.389988         1.797436         1.753555
 C        -1.912492         2.079327         1.276719
 C        -2.160675         3.467595         0.628110
 C        -1.302188         2.917531        -0.589494
 C        -1.485002         1.491979        -0.132933
 O        -2.708875         1.104683         1.875916
 C        -1.830777        -0.059300         1.471521
 H         0.220566        -1.113272         0.837537
 H        -0.243770         1.619527         2.855143
 H         0.350266         2.533633         1.398119
 H        -3.287027         3.474342         0.328614
 H        -1.756850         4.305809         1.153272
 H        -1.497970         3.172349        -1.675386
 H        -0.283349         3.270908        -0.349138
 H        -2.380890         1.045275        -0.687422
 H        -1.675833        -0.686015         2.441426
 H        -2.272510        -0.820207         0.812448
