19
Iteration:  3132charge 0 multiplicity 1
 O         0.307615        -0.398205         0.380120
 C        -0.727483         0.519878         0.753278
 C        -0.406498         1.767025         1.686152
 C        -1.892761         2.130119         1.168150
 C        -2.206158         3.502165         0.646626
 C        -1.307784         2.993698        -0.620855
 C        -1.499564         1.444369        -0.186585
 O        -2.671719         1.128261         1.921508
 C        -1.922301        -0.119827         1.513347
 H         0.746345        -0.548873         1.162302
 H        -0.205299         1.778283         2.786830
 H         0.276892         2.383199         1.196487
 H        -3.200888         3.536956         0.400765
 H        -1.739381         4.365437         1.107229
 H        -1.971632         3.206026        -1.582599
 H        -0.272484         3.397923        -0.701530
 H        -2.228327         0.963147        -0.795704
 H        -1.407948        -0.533108         2.456539
 H        -2.638052        -0.813528         0.980478
