19
Iteration:  3314
 O         0.228458        -0.497687         0.372482
 C        -0.646649         0.505359         0.817893
 C        -0.390090         1.809903         1.740114
 C        -1.905338         2.149369         1.203116
 C        -2.207574         3.429258         0.546716
 C        -1.290446         2.989951        -0.619580
 C        -1.509581         1.530867        -0.198336
 O        -2.701292         1.119759         1.950780
 C        -1.878175        -0.082051         1.545972
 H         0.940140         0.048763        -0.121685
 H        -0.324496         1.661717         2.862195
 H         0.337203         2.432297         1.277412
 H        -3.347287         3.488374         0.120947
 H        -1.995366         4.364277         1.118305
 H        -1.531209         3.203467        -1.600974
 H        -0.261084         3.490337        -0.411259
 H        -2.278697         1.034172        -0.910692
 H        -1.474984        -0.596198         2.384968
 H        -2.584139        -0.812394         1.045125
