19
Iteration:  1410
 O         0.252771        -0.355979         0.271026
 C        -0.643515         0.571730         0.800968
 C        -0.397638         1.737820         1.718707
 C        -1.847155         2.123918         1.337198
 C        -2.138824         3.432749         0.614166
 C        -1.355335         2.907468        -0.661732
 C        -1.554786         1.481690        -0.082056
 O        -2.703359         1.124236         1.845026
 C        -1.858089        -0.024964         1.506155
 H         0.301062        -1.083513         0.995669
 H        -0.198959         1.701919         2.783554
 H         0.286283         2.433664         1.315537
 H        -3.144232         3.652010         0.345685
 H        -1.780411         4.360268         0.993557
 H        -1.938156         2.915870        -1.529251
 H        -0.301946         3.390677        -0.806915
 H        -2.486008         1.014920        -0.547385
 H        -1.544694        -0.608280         2.414810
 H        -2.453377        -0.564834         0.734632
