19
Iteration:  2087
 O         0.298192        -0.406228         0.379110
 C        -0.662454         0.548050         0.697337
 C        -0.395724         1.729318         1.695492
 C        -1.861517         2.067723         1.235968
 C        -2.164502         3.455106         0.627328
 C        -1.288578         3.025488        -0.585061
 C        -1.457891         1.491147        -0.155170
 O        -2.756468         1.130449         1.843700
 C        -2.014781        -0.114505         1.626691
 H         1.027698         0.080867        -0.201623
 H        -0.328482         1.342043         2.692582
 H         0.405559         2.473233         1.297348
 H        -3.298266         3.424365         0.505270
 H        -1.769970         4.411370         1.176039
 H        -1.647669         3.179547        -1.556747
 H        -0.333736         3.663648        -0.704222
 H        -2.218748         1.132688        -0.815139
 H        -1.768167        -0.641992         2.582996
 H        -2.609562        -0.819416         1.111021
