19
Iteration:   950charge 0 multiplicity 1
 O         0.297165        -0.336485         0.251154
 C        -0.741247         0.485953         0.715027
 C        -0.393670         1.716759         1.623935
 C        -1.893091         2.109698         1.168289
 C        -2.238849         3.488614         0.579209
 C        -1.218020         3.042870        -0.595595
 C        -1.539015         1.499273        -0.214584
 O        -2.699475         1.141347         2.055526
 C        -1.902470        -0.176607         1.693404
 H         0.829953        -0.637439         0.916559
 H        -0.327166         1.532975         2.757884
 H         0.393433         2.292880         1.319438
 H        -3.243440         3.496528         0.057726
 H        -2.206117         4.375970         1.207292
 H        -1.583238         3.277193        -1.614745
 H        -0.203185         3.351769        -0.663907
 H        -2.230140         1.089646        -0.891850
 H        -1.397114        -0.550407         2.594839
 H        -2.498523        -0.836594         1.133283
