19
Iteration:  1730charge 0 multiplicity 1
 O         0.336954        -0.314817         0.362909
 C        -0.710844         0.517116         0.701817
 C        -0.456460         1.690347         1.736370
 C        -1.844421         2.049371         1.202126
 C        -2.190132         3.438119         0.713639
 C        -1.288556         2.999331        -0.582433
 C        -1.466271         1.488534        -0.192862
 O        -2.734299         1.200063         1.863921
 C        -1.905061        -0.050478         1.512377
 H         0.159844        -1.166788        -0.134052
 H        -0.515061         1.293866         2.705118
 H         0.420467         2.331067         1.426142
 H        -3.277101         3.326342         0.339920
 H        -1.794715         4.183539         1.351227
 H        -1.455222         3.292866        -1.599079
 H        -0.275878         3.443995        -0.300035
 H        -2.372488         1.012708        -0.705670
 H        -1.632167        -0.501699         2.455310
 H        -2.571995        -0.691573         1.099122
