19
Iteration:  3953
 O         0.281766        -0.348695         0.320184
 C        -0.714430         0.573460         0.762182
 C        -0.388312         1.814984         1.655681
 C        -1.960824         2.087842         1.278725
 C        -2.176500         3.404275         0.541404
 C        -1.272132         2.920214        -0.556467
 C        -1.501596         1.467206        -0.150585
 O        -2.679853         1.144115         1.950131
 C        -1.837244        -0.049113         1.560128
 H        -0.077001        -1.185927         0.334064
 H        -0.280268         1.417004         2.685910
 H         0.250374         2.659119         1.443310
 H        -3.259083         3.432335         0.163891
 H        -1.893664         4.353896         1.131545
 H        -1.762346         3.174153        -1.475158
 H        -0.293468         3.405611        -0.833102
 H        -2.190429         0.894097        -0.889618
 H        -1.513266        -0.529526         2.445449
 H        -2.410969        -0.701666         0.941036
