19
Iteration:  4962charge 0 multiplicity 1
 O         0.269295        -0.442624         0.314125
 C        -0.690001         0.614856         0.748300
 C        -0.355867         1.806845         1.635220
 C        -1.849201         2.063189         1.175625
 C        -2.231688         3.485964         0.565740
 C        -1.342475         2.937876        -0.687201
 C        -1.558120         1.404699        -0.229789
 O        -2.661296         1.159996         1.956273
 C        -1.847534        -0.049919         1.743456
 H         0.288990        -0.971966         1.225199
 H        -0.273750         1.641746         2.719814
 H         0.336168         2.605715         1.318610
 H        -3.267836         3.788691         0.233178
 H        -1.826860         4.386663         1.128263
 H        -1.769739         3.231991        -1.664977
 H        -0.387617         3.496203        -0.795823
 H        -2.467840         0.841456        -0.602223
 H        -1.409191        -0.447960         2.643637
 H        -2.464858        -0.946531         1.405218
