19
Iteration:  4919charge 0 multiplicity 1
 O         0.198236        -0.399711         0.323910
 C        -0.671042         0.533473         0.763304
 C        -0.296050         1.891257         1.644181
 C        -1.860070         2.139542         1.146743
 C        -2.281062         3.411760         0.523521
 C        -1.360857         2.898738        -0.627764
 C        -1.519764         1.417982        -0.160806
 O        -2.601576         1.183015         2.022926
 C        -1.912498        -0.044239         1.637617
 H         0.744044        -0.773242         0.997562
 H        -0.075737         1.677817         2.699284
 H         0.661431         2.326223         1.261141
 H        -3.365693         3.396680         0.371208
 H        -2.121613         4.344402         1.058473
 H        -1.578964         3.035795        -1.732878
 H        -0.273182         3.218453        -0.679811
 H        -2.418506         0.884218        -0.728644
 H        -1.721871        -0.653853         2.495851
 H        -2.597210        -0.698337         0.947981
