19
Iteration:  4254charge 0 multiplicity 1
 O         0.310302        -0.385422         0.424549
 C        -0.675800         0.539580         0.789417
 C        -0.362713         1.799165         1.645252
 C        -1.847200         2.086722         1.151820
 C        -2.213723         3.414275         0.660173
 C        -1.438421         2.974132        -0.623033
 C        -1.518633         1.329440        -0.174002
 O        -2.651361         1.252660         1.912611
 C        -1.886038        -0.040802         1.597115
 H         0.325364        -0.652985        -0.582700
 H        -0.240499         1.755147         2.794539
 H         0.523379         2.326729         1.211852
 H        -3.302495         3.412947         0.302768
 H        -2.008930         4.413080         1.091794
 H        -1.809380         2.983131        -1.628705
 H        -0.310016         3.276141        -0.613996
 H        -2.275486         0.708259        -0.786958
 H        -1.683174        -0.371379         2.638146
 H        -2.463914        -0.685476         0.987757
