19
Iteration:  3518charge 0 multiplicity 1
 O         0.264388        -0.357089         0.401444
 C        -0.711537         0.574294         0.780503
 C        -0.486133         1.747311         1.629768
 C        -1.922113         2.066413         1.220769
 C        -2.095247         3.475304         0.613610
 C        -1.263675         2.884505        -0.609204
 C        -1.592255         1.507068        -0.206874
 O        -2.685041         1.100376         1.934846
 C        -1.857249        -0.065565         1.566502
 H         0.974006        -0.008229        -0.063573
 H        -0.525735         1.592183         2.766182
 H         0.273780         2.484204         1.447042
 H        -3.091752         3.754176         0.301321
 H        -1.727737         4.448888         1.265491
 H        -1.827484         2.942400        -1.550071
 H        -0.200882         3.375922        -0.635637
 H        -2.172916         0.965225        -0.885228
 H        -1.391369        -0.745310         2.444216
 H        -2.462251        -0.710892         0.954241
