19
Iteration:  1045
 O         0.325763        -0.324498         0.334400
 C        -0.685042         0.558020         0.715188
 C        -0.400428         1.678791         1.627914
 C        -1.878259         2.049986         1.251686
 C        -2.166601         3.400982         0.653439
 C        -1.333165         2.947630        -0.650876
 C        -1.567948         1.498243        -0.154863
 O        -2.707932         1.155014         1.944548
 C        -1.859676        -0.000296         1.559388
 H         0.365231        -1.039229         1.093255
 H        -0.259134         1.548080         2.701194
 H         0.266630         2.369333         1.203138
 H        -3.136908         3.573534         0.327876
 H        -1.867868         4.291255         1.180207
 H        -1.815755         3.329751        -1.667835
 H        -0.349179         3.217347        -0.693860
 H        -2.486300         1.158087        -0.776743
 H        -1.408811        -0.342047         2.470345
 H        -2.513089        -0.725153         1.035559
