19
Iteration:   806charge 0 multiplicity 1
 O         0.236330        -0.371693         0.202981
 C        -0.632283         0.538791         0.775898
 C        -0.435176         1.742661         1.807435
 C        -1.786531         2.089228         1.227132
 C        -2.247342         3.404765         0.584871
 C        -1.342539         2.965207        -0.673159
 C        -1.530098         1.485975        -0.130929
 O        -2.680367         1.214772         1.910366
 C        -1.853277        -0.096056         1.569738
 H         0.833885        -0.662701         0.877264
 H        -0.575257         1.572966         2.832816
 H         0.438897         2.499781         1.617417
 H        -3.301854         3.485590         0.485998
 H        -1.895611         4.291339         1.198764
 H        -1.844724         3.025387        -1.744225
 H        -0.389853         3.431445        -0.673365
 H        -2.263281         0.968973        -0.612237
 H        -1.494721        -0.564331         2.598669
 H        -2.491724        -0.833723         1.024695
