19
Iteration:   905
 O         0.255896        -0.381328         0.236593
 C        -0.652207         0.604961         0.809322
 C        -0.364868         1.831226         1.772967
 C        -1.913286         2.107737         1.222115
 C        -2.144545         3.502056         0.672770
 C        -1.339746         2.897613        -0.650641
 C        -1.574596         1.448932        -0.134887
 O        -2.679941         1.108470         1.880044
 C        -1.854624        -0.104106         1.521051
 H         0.554501        -0.878091         0.951327
 H        -0.171955         1.631205         2.837608
 H         0.420830         2.439980         1.350355
 H        -3.145187         3.529842         0.241165
 H        -1.928861         4.461990         1.141299
 H        -1.964208         3.176895        -1.581423
 H        -0.441160         3.251458        -0.888371
 H        -2.277019         0.780029        -0.509000
 H        -1.655868        -0.549492         2.467419
 H        -2.494542        -0.669720         0.927002
