19
Iteration:   654charge 0 multiplicity 1
 O         0.252830        -0.329111         0.301001
 C        -0.719909         0.565694         0.756745
 C        -0.417913         1.844029         1.647560
 C        -1.947817         2.072326         1.227859
 C        -2.189322         3.441881         0.587557
 C        -1.212423         2.929205        -0.577024
 C        -1.561972         1.468015        -0.228091
 O        -2.656465         1.117075         2.001450
 C        -1.886436        -0.165295         1.571745
 H         0.587222        -0.638231         1.131987
 H        -0.282085         1.715570         2.654022
 H         0.329583         2.573553         1.157406
 H        -3.187319         3.742749         0.342575
 H        -1.708380         4.309787         1.134513
 H        -1.607495         3.211162        -1.620676
 H        -0.206195         3.127134        -0.651928
 H        -2.378881         1.008725        -0.794365
 H        -1.389696        -0.575342         2.466745
 H        -2.488866        -0.686821         0.864779
