19
Iteration:   684
 O         0.278958        -0.348577         0.251581
 C        -0.699111         0.540225         0.764090
 C        -0.410450         1.703917         1.697868
 C        -1.940214         2.068005         1.187482
 C        -2.277913         3.428835         0.573205
 C        -1.227910         2.982471        -0.602109
 C        -1.534311         1.471437        -0.179202
 O        -2.656387         1.189609         1.992913
 C        -1.886881        -0.042478         1.576351
 H         0.759680        -0.724476         0.994861
 H        -0.240853         1.685177         2.832822
 H         0.374979         2.374793         1.307388
 H        -3.333582         3.556437         0.291203
 H        -1.867287         4.306132         1.123182
 H        -1.634356         3.172404        -1.618887
 H        -0.167727         3.083812        -0.377093
 H        -2.272742         1.068998        -0.828127
 H        -1.434216        -0.669095         2.434359
 H        -2.443464        -0.867217         1.071941
