19
Iteration:  2264charge 0 multiplicity 1
 O         0.298855        -0.427748         0.425990
 C        -0.786618         0.490672         0.744780
 C        -0.461825         1.675937         1.569879
 C        -1.866795         2.066830         1.186198
 C        -2.229765         3.517758         0.659660
 C        -1.243580         3.070138        -0.537088
 C        -1.487871         1.524986        -0.200596
 O        -2.646770         1.145522         1.877649
 C        -1.940390        -0.136437         1.564883
 H         1.179074         0.182693         0.438712
 H        -0.128551         1.451359         2.586748
 H         0.293189         2.235389         1.214421
 H        -3.357955         3.549640         0.343537
 H        -1.988455         4.448742         1.051275
 H        -1.532580         3.348425        -1.568442
 H        -0.345381         3.371699        -0.220188
 H        -2.344534         1.217695        -0.769803
 H        -1.460333        -0.625749         2.538262
 H        -2.565239        -0.921275         1.035391
