19
Iteration:  2735charge 0 multiplicity 1
 O         0.329231        -0.411567         0.527902
 C        -0.624293         0.594063         0.712729
 C        -0.461475         1.812068         1.627367
 C        -1.865402         2.061548         1.264000
 C        -2.169051         3.393334         0.707574
 C        -1.309201         3.016402        -0.568667
 C        -1.486799         1.505290        -0.256256
 O        -2.675275         1.108173         1.899731
 C        -1.946456        -0.064948         1.395982
 H        -0.331963        -1.139435         0.173114
 H        -0.281899         1.604584         2.762623
 H         0.252200         2.494672         1.301217
 H        -3.177527         3.585403         0.206990
 H        -1.691775         4.229902         1.325869
 H        -1.988477         3.272147        -1.447143
 H        -0.317645         3.393274        -0.504467
 H        -2.288597         1.233254        -0.877319
 H        -1.675256        -0.734306         2.316800
 H        -2.616587        -0.630271         0.675080
