19
Iteration:  1525charge 0 multiplicity 1
 O         0.222095        -0.463350         0.377283
 C        -0.683059         0.538566         0.798347
 C        -0.408614         1.793113         1.716416
 C        -1.912782         2.031579         1.228314
 C        -2.154790         3.503380         0.622791
 C        -1.339997         3.012120        -0.651625
 C        -1.505058         1.455235        -0.167667
 O        -2.640923         1.098308         1.958049
 C        -1.914851        -0.060808         1.482679
 H         0.959129        -0.058638        -0.152659
 H        -0.324983         1.646379         2.806262
 H         0.233121         2.606058         1.140713
 H        -3.141452         3.841909         0.444073
 H        -1.671611         4.308913         1.189480
 H        -1.760833         3.248891        -1.648346
 H        -0.379346         3.461274        -0.615549
 H        -2.240695         0.940601        -0.711188
 H        -1.514107        -0.480162         2.449310
 H        -2.448454        -0.696312         0.749788
