19
Iteration:  4933
 O         0.240000        -0.430095         0.301212
 C        -0.687375         0.560262         0.829702
 C        -0.303397         1.739724         1.595824
 C        -1.816108         2.067764         1.214127
 C        -2.334735         3.402533         0.580700
 C        -1.327045         2.927366        -0.677811
 C        -1.497634         1.435799        -0.132122
 O        -2.620485         1.251573         1.914648
 C        -1.893254         0.009894         1.658215
 H         0.610467        -0.872564         1.204872
 H        -0.106024         1.742946         2.668322
 H         0.203373         2.494571         1.051334
 H        -3.316752         3.369722         0.193266
 H        -2.116264         4.289092         1.049178
 H        -1.932228         3.112980        -1.656598
 H        -0.437888         3.537562        -0.586997
 H        -2.441719         0.928642        -0.595303
 H        -1.533922        -0.445592         2.610057
 H        -2.537152        -0.751941         1.140906
