19
Iteration:   857
 O         0.342443        -0.317281         0.300738
 C        -0.723955         0.522509         0.760696
 C        -0.437122         1.794789         1.554326
 C        -1.885884         2.062656         1.159248
 C        -2.173540         3.417898         0.632309
 C        -1.282420         2.949628        -0.473579
 C        -1.630653         1.448546        -0.200559
 O        -2.616939         1.110686         1.943746
 C        -1.901898         0.006230         1.593242
 H         0.534304        -0.981955         1.098416
 H        -0.338630         1.558071         2.624988
 H         0.292130         2.639358         1.300141
 H        -3.211884         3.582417         0.308431
 H        -1.983225         4.235740         1.363980
 H        -1.606234         3.236985        -1.452052
 H        -0.142002         3.135740        -0.702294
 H        -2.478808         0.794709        -0.824747
 H        -1.676779        -0.487708         2.491696
 H        -2.583054        -0.564351         0.927956
