19
Iteration:  3797charge 0 multiplicity 1
 O         0.279805        -0.385150         0.376700
 C        -0.660665         0.508090         0.724574
 C        -0.436585         1.824511         1.700325
 C        -1.869389         2.051779         1.194043
 C        -2.118782         3.426089         0.595554
 C        -1.339238         2.944874        -0.696496
 C        -1.512239         1.487956        -0.160188
 O        -2.682899         1.125555         1.999871
 C        -1.943679        -0.063255         1.610830
 H         0.822994         0.124582        -0.370904
 H        -0.298834         1.661089         2.764864
 H         0.274693         2.541981         1.344513
 H        -3.245270         3.614442         0.234110
 H        -1.779891         4.305066         1.092996
 H        -1.969076         2.964711        -1.577736
 H        -0.351456         3.351446        -0.740818
 H        -2.347256         0.986313        -0.722423
 H        -1.568985        -0.501111         2.526119
 H        -2.535580        -0.793530         1.168810
