19
Iteration:  3500
 O         0.296667        -0.379768         0.404786
 C        -0.699861         0.617585         0.799710
 C        -0.433486         1.857879         1.715428
 C        -1.950964         2.080768         1.205277
 C        -2.076859         3.456690         0.619960
 C        -1.304347         2.992705        -0.641373
 C        -1.503050         1.397581        -0.200825
 O        -2.692817         1.070392         1.933649
 C        -1.944160        -0.112277         1.527677
 H         0.542959        -0.169538        -0.447049
 H        -0.279431         1.652185         2.768477
 H         0.277583         2.497198         1.094438
 H        -3.070280         3.846978         0.345552
 H        -1.759032         4.203372         1.264623
 H        -1.707137         3.138447        -1.647080
 H        -0.192984         3.101634        -0.519548
 H        -2.436736         0.830736        -0.510483
 H        -1.575279        -0.567943         2.465617
 H        -2.525445        -0.809244         0.828595
