19
Iteration:   843charge 0 multiplicity 1
 O         0.260838        -0.356870         0.275984
 C        -0.652217         0.596608         0.724978
 C        -0.410778         1.854226         1.616302
 C        -1.921150         2.057866         1.226112
 C        -2.203625         3.430628         0.655135
 C        -1.271393         2.905696        -0.599885
 C        -1.536962         1.435498        -0.143609
 O        -2.699899         1.153693         1.960835
 C        -1.868681        -0.095404         1.553260
 H         0.550396        -0.831060         1.002165
 H        -0.185710         1.762052         2.735678
 H         0.293050         2.430757         1.160042
 H        -3.285110         3.527585         0.303177
 H        -1.795762         4.289505         1.144692
 H        -1.547657         3.209442        -1.583382
 H        -0.279592         3.309692        -0.246707
 H        -2.442304         1.075685        -0.668524
 H        -1.483946        -0.680491         2.471298
 H        -2.439025        -0.794183         0.860968
