19
Iteration:  1112
 O         0.241077        -0.363148         0.242591
 C        -0.648268         0.561225         0.747015
 C        -0.345643         1.733886         1.686709
 C        -1.832321         2.126919         1.281288
 C        -2.215055         3.429287         0.656042
 C        -1.287622         2.906434        -0.660892
 C        -1.515563         1.488698        -0.165246
 O        -2.754848         1.129885         1.871635
 C        -1.893023        -0.011103         1.618535
 H         0.823478        -0.675512         0.871185
 H        -0.327074         1.473663         2.747141
 H         0.411249         2.502109         1.559082
 H        -3.243226         3.296520         0.586264
 H        -2.049953         4.406722         1.015565
 H        -1.748317         3.110285        -1.692235
 H        -0.293136         3.266553        -0.591563
 H        -2.431713         0.890890        -0.430824
 H        -1.631616        -0.443188         2.563362
 H        -2.456493        -0.650006         0.934525
