19
Iteration:  2860charge 0 multiplicity 1
 O         0.371690        -0.422517         0.588706
 C        -0.710795         0.523536         0.700068
 C        -0.426679         1.666882         1.573647
 C        -1.824976         2.137106         1.235287
 C        -2.219302         3.472322         0.687257
 C        -1.319042         3.032528        -0.545888
 C        -1.551325         1.491330        -0.190137
 O        -2.689737         1.126149         1.851110
 C        -1.914775        -0.033101         1.418028
 H         0.449500        -0.716220        -0.429318
 H        -0.354553         1.514892         2.613099
 H         0.436638         2.277142         1.230049
 H        -3.203022         3.616018         0.427067
 H        -2.103889         4.371488         1.350355
 H        -1.716493         3.354735        -1.512524
 H        -0.248069         3.246438        -0.485103
 H        -2.362978         0.930449        -0.634207
 H        -1.625777        -0.442170         2.453201
 H        -2.591424        -0.631497         0.779989
