19
Iteration:  2317
 O         0.198707        -0.435880         0.402749
 C        -0.666865         0.557771         0.813057
 C        -0.358772         1.822916         1.738292
 C        -1.889664         2.063091         1.236961
 C        -2.159269         3.516033         0.656029
 C        -1.332426         2.998916        -0.570198
 C        -1.474119         1.467049        -0.119609
 O        -2.694166         1.041440         1.816741
 C        -1.937586        -0.080821         1.443702
 H         0.877309         0.005025        -0.299814
 H        -0.408626         1.751399         2.861236
 H         0.404486         2.426273         1.349635
 H        -3.104488         3.767312         0.237922
 H        -1.604672         4.301078         1.065989
 H        -1.964274         3.218300        -1.494832
 H        -0.303002         3.371911        -0.597655
 H        -2.193679         0.970235        -0.695820
 H        -1.571901        -0.733850         2.364673
 H        -2.400988        -0.647356         0.685787
