19
Iteration:  1883charge 0 multiplicity 1
 O         0.283932        -0.367492         0.367164
 C        -0.720569         0.513159         0.819304
 C        -0.435454         1.800796         1.732406
 C        -1.904719         2.089814         1.151841
 C        -2.150493         3.455390         0.599925
 C        -1.208279         3.032179        -0.612475
 C        -1.498849         1.530364        -0.139753
 O        -2.709991         1.031994         1.951375
 C        -1.935926        -0.104589         1.526087
 H         0.306227        -0.432689        -0.689899
 H        -0.320616         1.728760         2.751991
 H         0.490716         2.323313         1.285351
 H        -3.209179         3.649588         0.315232
 H        -1.971887         4.309103         1.167791
 H        -1.574968         3.258249        -1.563106
 H        -0.163925         3.377016        -0.437700
 H        -2.269885         1.101129        -0.845525
 H        -1.679824        -0.628249         2.435794
 H        -2.554028        -0.859755         0.925571
