19
Iteration:  4912
 O         0.222193        -0.414330         0.299642
 C        -0.719152         0.543594         0.808904
 C        -0.344116         1.900335         1.623050
 C        -1.822263         2.077099         1.203692
 C        -2.241083         3.429898         0.494922
 C        -1.356144         2.892489        -0.649972
 C        -1.561561         1.452394        -0.163947
 O        -2.599624         1.159594         2.079229
 C        -1.898996        -0.006613         1.591564
 H         0.736986        -0.688791         0.980923
 H        -0.332280         1.681340         2.701422
 H         0.511198         2.442968         1.263678
 H        -3.285027         3.379136         0.210974
 H        -1.988204         4.388622         0.885463
 H        -1.652975         3.166333        -1.731020
 H        -0.299983         3.075705        -0.540417
 H        -2.152725         0.777091        -0.787280
 H        -1.674149        -0.706379         2.445028
 H        -2.521268        -0.638833         0.974354
