19
Iteration:  1447
 O         0.286862        -0.342579         0.286665
 C        -0.727552         0.496000         0.714940
 C        -0.536671         1.790593         1.640989
 C        -1.926076         2.041772         1.160942
 C        -2.157463         3.464425         0.591096
 C        -1.228176         3.001948        -0.590064
 C        -1.520349         1.466003        -0.140901
 O        -2.617304         1.144229         1.986084
 C        -1.890221        -0.060924         1.630283
 H         0.767163        -0.987241         0.949949
 H        -0.397130         1.643982         2.771482
 H         0.217850         2.318991         1.021187
 H        -3.244168         3.617746         0.391377
 H        -1.761487         4.119725         1.297530
 H        -1.717567         3.380179        -1.565167
 H        -0.271532         3.417266        -0.667122
 H        -2.262709         1.012631        -0.796670
 H        -1.606604        -0.793647         2.441600
 H        -2.613423        -0.682417         1.062903
