19
Iteration:  4391charge 0 multiplicity 1
 O         0.240114        -0.426923         0.329765
 C        -0.655318         0.636753         0.714685
 C        -0.348713         1.856711         1.577430
 C        -1.916265         2.083697         1.205802
 C        -2.223341         3.438155         0.559154
 C        -1.322719         2.926450        -0.654604
 C        -1.537402         1.426240        -0.168288
 O        -2.646766         1.113146         2.015697
 C        -1.878802        -0.050737         1.680212
 H         0.343342        -0.948098         1.054677
 H        -0.096069         1.717277         2.600024
 H         0.223176         2.773989         1.338171
 H        -3.365363         3.645631         0.279826
 H        -1.879088         4.441855         1.014061
 H        -1.772394         3.026802        -1.696794
 H        -0.322798         3.218087        -0.662494
 H        -2.276012         0.826265        -0.654769
 H        -1.335977        -0.470097         2.483722
 H        -2.437361        -0.751857         1.103376
