19
Iteration:   101
 O         0.296793        -0.389966         0.346094
 C        -0.661587         0.583387         0.795253
 C        -0.303080         1.738361         1.668673
 C        -1.901695         2.057732         1.190624
 C        -2.158358         3.443736         0.688411
 C        -1.386938         2.928379        -0.660610
 C        -1.552758         1.414706        -0.169460
 O        -2.710544         1.217035         1.860634
 C        -1.930085        -0.017324         1.570586
 H         0.903757        -0.504042         1.008999
 H        -0.206757         1.508830         2.658927
 H         0.512218         2.500612         1.246987
 H        -3.210692         3.557137         0.449433
 H        -1.749418         4.297733         1.274871
 H        -2.054686         3.100476        -1.573691
 H        -0.385641         3.253766        -0.776276
 H        -2.321951         0.749823        -0.667862
 H        -1.618998        -0.517308         2.450344
 H        -2.531400        -0.697492         0.975405
