19
Iteration:  3002
 O         0.272849        -0.415548         0.511803
 C        -0.715140         0.510604         0.735540
 C        -0.355486         1.727687         1.703112
 C        -1.837115         2.106903         1.242105
 C        -2.225457         3.470947         0.595904
 C        -1.328195         3.036529        -0.615303
 C        -1.439178         1.532829        -0.159370
 O        -2.692498         1.035344         1.868276
 C        -1.931666        -0.045129         1.486868
 H         0.381802        -0.546644        -0.491473
 H        -0.121942         1.689392         2.756191
 H         0.160355         2.507234         1.291306
 H        -3.288420         3.690416         0.463311
 H        -1.911396         4.478516         1.209540
 H        -1.754817         2.993872        -1.685951
 H        -0.447871         3.565816        -0.674997
 H        -2.265213         1.263564        -0.689131
 H        -1.624722        -0.648310         2.429454
 H        -2.439640        -0.734879         0.814733
