19
Iteration:  4994
 O         0.284594        -0.300527         0.277791
 C        -0.722824         0.570405         0.752127
 C        -0.418130         1.914075         1.617196
 C        -1.876352         2.086441         1.195400
 C        -2.125462         3.446577         0.561896
 C        -1.263176         2.830980        -0.658222
 C        -1.598702         1.365714        -0.185892
 O        -2.685863         1.149592         2.087137
 C        -1.910827        -0.110345         1.641695
 H         0.504882        -0.813014         1.027188
 H        -0.202580         1.816149         2.699473
 H         0.188271         2.690333         1.110406
 H        -3.124803         3.762164         0.102008
 H        -1.584848         4.393282         1.010995
 H        -1.842534         3.046608        -1.555733
 H        -0.176950         3.075474        -0.869674
 H        -2.347604         0.679602        -0.561791
 H        -1.505203        -0.559964         2.583474
 H        -2.520428        -0.652480         0.887578
