19
Iteration:   970
 O         0.323095        -0.329639         0.279438
 C        -0.766840         0.530873         0.717228
 C        -0.479363         1.728465         1.609360
 C        -1.911687         2.075956         1.204796
 C        -2.208670         3.427692         0.581640
 C        -1.246549         2.958797        -0.547701
 C        -1.587885         1.454225        -0.151774
 O        -2.586178         1.155111         1.959351
 C        -1.897537        -0.043609         1.600282
 H         0.736696        -0.600528         1.108790
 H        -0.246756         1.513915         2.667069
 H         0.316033         2.252219         1.172559
 H        -3.259735         3.476934         0.398625
 H        -1.964990         4.316583         1.142376
 H        -1.423164         3.300015        -1.639099
 H        -0.295828         3.183519        -0.283748
 H        -2.519226         1.196963        -0.768629
 H        -1.403467        -0.459305         2.430011
 H        -2.563498        -0.707890         1.140152
