19
Iteration:  3599charge 0 multiplicity 1
 O         0.279154        -0.374321         0.314241
 C        -0.628311         0.537924         0.794450
 C        -0.471842         1.809138         1.727978
 C        -1.899159         2.066081         1.158484
 C        -2.210887         3.448121         0.563558
 C        -1.302041         2.966540        -0.654820
 C        -1.536613         1.512715        -0.132661
 O        -2.586820         1.114649         1.968993
 C        -1.902444        -0.054986         1.573677
 H        -0.040171        -1.145354         0.756067
 H        -0.224090         1.482728         2.744114
 H         0.245567         2.589937         1.294658
 H        -3.281373         3.589789         0.127410
 H        -1.907818         4.326874         1.134727
 H        -1.815106         3.422736        -1.570193
 H        -0.229694         3.314447        -0.652710
 H        -2.296363         0.830902        -0.646305
 H        -1.541027        -0.686421         2.472997
 H        -2.580669        -0.726458         0.801274
