19
Iteration:  3326charge 0 multiplicity 1
 O         0.252642        -0.458873         0.398087
 C        -0.691667         0.591396         0.760584
 C        -0.430737         1.804310         1.712761
 C        -1.895436         2.006057         1.151888
 C        -2.217611         3.473344         0.551591
 C        -1.252164         3.012367        -0.615748
 C        -1.506405         1.476215        -0.177825
 O        -2.670010         1.114442         1.972863
 C        -1.899518        -0.044146         1.596535
 H         0.734084        -0.241536        -0.517289
 H        -0.386627         1.661647         2.819727
 H         0.436538         2.470547         1.524339
 H        -3.421611         3.484841         0.333257
 H        -1.921019         4.402188         1.121867
 H        -1.481214         3.225180        -1.609896
 H        -0.167028         3.259754        -0.383936
 H        -2.283451         0.963938        -0.870087
 H        -1.715462        -0.621788         2.468715
 H        -2.411865        -0.665441         0.789285
