19
Iteration:  3030charge 0 multiplicity 1
 O         0.260037        -0.498349         0.389398
 C        -0.674071         0.517543         0.747550
 C        -0.391515         1.763473         1.722957
 C        -1.909925         2.092131         1.163350
 C        -2.241129         3.412311         0.613311
 C        -1.280857         3.026890        -0.509928
 C        -1.496994         1.425408        -0.177234
 O        -2.677285         1.177321         1.899622
 C        -1.883151         0.029237         1.516588
 H         0.885728        -0.021199        -0.325807
 H        -0.512842         1.677480         2.823238
 H         0.355622         2.574906         1.341745
 H        -3.262824         3.420073         0.188674
 H        -2.238654         4.165765         1.310595
 H        -1.507591         3.219851        -1.509860
 H        -0.180529         3.482315        -0.510482
 H        -2.339225         1.031960        -0.899149
 H        -1.567874        -0.509212         2.383698
 H        -2.440769        -0.847889         1.020255
