19
Iteration:  2851
 O         0.327901        -0.363155         0.572399
 C        -0.673044         0.518902         0.704410
 C        -0.382098         1.664928         1.624877
 C        -1.890727         2.031877         1.190521
 C        -2.161745         3.478674         0.696607
 C        -1.314350         3.021721        -0.581199
 C        -1.582595         1.515698        -0.208422
 O        -2.696937         1.135287         1.880962
 C        -1.928087         0.005526         1.463976
 H         0.560247        -0.705402        -0.388984
 H        -0.377967         1.456559         2.709501
 H         0.370077         2.358320         1.344470
 H        -3.186051         3.478372         0.329012
 H        -1.877714         4.229947         1.310012
 H        -1.696772         3.362399        -1.606158
 H        -0.301323         3.234799        -0.425327
 H        -2.443037         1.011512        -0.832849
 H        -1.516034        -0.656081         2.250413
 H        -2.450246        -0.701649         0.738445
