19
Iteration:  4751
 O         0.243485        -0.338433         0.246857
 C        -0.660052         0.534055         0.806695
 C        -0.423434         1.825231         1.644643
 C        -1.852236         2.091018         1.265184
 C        -2.150009         3.495912         0.528751
 C        -1.362124         2.853527        -0.659917
 C        -1.580037         1.388154        -0.206196
 O        -2.631335         1.150487         1.912348
 C        -1.829693        -0.029548         1.729376
 H         0.624739        -0.900503         0.874015
 H        -0.553679         1.749746         2.765528
 H         0.413942         2.476872         1.383811
 H        -3.271338         3.490670         0.243475
 H        -1.927454         4.494504         1.153461
 H        -1.950980         3.180878        -1.451579
 H        -0.339572         3.183874        -0.858466
 H        -2.425340         0.936344        -0.680153
 H        -1.590323        -0.477722         2.743413
 H        -2.494577        -0.758474         1.329364
