19
Iteration:  4253
 O         0.313168        -0.380222         0.424000
 C        -0.683550         0.556188         0.798471
 C        -0.355565         1.795615         1.640133
 C        -1.844830         2.081180         1.151856
 C        -2.223146         3.410138         0.661512
 C        -1.429218         2.978737        -0.629740
 C        -1.518432         1.331148        -0.168995
 O        -2.655138         1.253345         1.912359
 C        -1.886036        -0.053433         1.600930
 H         0.314833        -0.704340        -0.602862
 H        -0.222387         1.777566         2.748899
 H         0.539315         2.294017         1.222378
 H        -3.242614         3.414551         0.355284
 H        -2.026514         4.415754         1.082865
 H        -1.791028         2.986455        -1.648398
 H        -0.335207         3.261894        -0.623455
 H        -2.278312         0.708248        -0.793081
 H        -1.701234        -0.348383         2.632118
 H        -2.508404        -0.698562         0.964968
