19
Iteration:  2036
 O         0.240160        -0.432586         0.426147
 C        -0.693982         0.633629         0.703436
 C        -0.433207         1.798298         1.744885
 C        -1.908548         2.067476         1.253776
 C        -2.170667         3.469069         0.642315
 C        -1.244339         2.932548        -0.545815
 C        -1.506456         1.493553        -0.169786
 O        -2.701894         1.075326         1.878971
 C        -1.885881        -0.039342         1.473382
 H         0.607639        -0.178968        -0.419597
 H        -0.207749         1.554673         2.773040
 H         0.238792         2.590329         1.337611
 H        -3.170780         3.540444         0.152759
 H        -1.827810         4.260104         1.195911
 H        -1.625219         3.220782        -1.564761
 H        -0.193613         3.138351        -0.609592
 H        -2.320487         0.972916        -0.753652
 H        -1.526211        -0.560962         2.334570
 H        -2.489205        -0.819972         0.816056
