19
Iteration:   568charge 0 multiplicity 1
 O         0.273616        -0.375823         0.294260
 C        -0.709334         0.585684         0.764943
 C        -0.487968         1.873399         1.592091
 C        -1.925559         2.053067         1.231182
 C        -2.236548         3.432059         0.582568
 C        -1.166889         2.955473        -0.623261
 C        -1.518409         1.480453        -0.115971
 O        -2.627426         1.069856         2.020473
 C        -1.923711        -0.063317         1.534269
 H         0.647253        -0.867363         1.052720
 H        -0.190669         1.950009         2.569944
 H         0.301409         2.386686         0.882105
 H        -3.254479         3.613185         0.276916
 H        -1.885863         4.295686         1.227012
 H        -1.617800         3.263983        -1.641175
 H        -0.121932         3.145134        -0.430008
 H        -2.399482         0.834742        -0.649619
 H        -1.513393        -0.547897         2.438455
 H        -2.699280        -0.712901         1.008387
