19
Iteration:  3796charge 0 multiplicity 1
 O         0.280050        -0.388764         0.375604
 C        -0.665712         0.516505         0.719437
 C        -0.436665         1.822307         1.697928
 C        -1.873750         2.049006         1.212813
 C        -2.108587         3.422761         0.585747
 C        -1.342709         2.949887        -0.693054
 C        -1.513040         1.484358        -0.160731
 O        -2.686475         1.120084         1.998093
 C        -1.933435        -0.055642         1.612287
 H         0.810509         0.129696        -0.325950
 H        -0.316350         1.694122         2.793253
 H         0.272719         2.530005         1.342822
 H        -3.253204         3.601751         0.220588
 H        -1.749361         4.315056         1.076026
 H        -1.985159         2.985102        -1.617422
 H        -0.359370         3.342660        -0.758289
 H        -2.341937         1.023898        -0.724925
 H        -1.559738        -0.534621         2.554806
 H        -2.543465        -0.797369         1.135314
