19
Iteration:  1517
 O         0.211190        -0.487389         0.315097
 C        -0.696894         0.536551         0.791747
 C        -0.416204         1.838139         1.736064
 C        -1.898112         2.094144         1.157639
 C        -2.161065         3.518928         0.612297
 C        -1.384421         3.017883        -0.640892
 C        -1.447820         1.469969        -0.122594
 O        -2.623819         1.078944         1.944040
 C        -1.931841        -0.087655         1.558673
 H         1.098803         0.001116         0.088911
 H        -0.401341         1.462594         2.728097
 H         0.373322         2.675531         1.482511
 H        -3.173907         3.728620         0.347771
 H        -1.589935         4.320210         1.248053
 H        -1.762749         3.041306        -1.603660
 H        -0.351075         3.443463        -0.727805
 H        -2.193315         0.958210        -0.713729
 H        -1.711850        -0.722473         2.338378
 H        -2.470577        -0.768398         0.914030
