19
Iteration:  3199
 O         0.309311        -0.325113         0.191406
 C        -0.691325         0.566721         0.826357
 C        -0.408831         1.778558         1.786090
 C        -1.869912         2.038418         1.184840
 C        -2.227508         3.495505         0.533949
 C        -1.237526         2.952327        -0.633860
 C        -1.529782         1.433304        -0.136918
 O        -2.704029         1.166189         1.925487
 C        -1.925912        -0.090145         1.625789
 H         0.453927        -1.031243         0.969337
 H        -0.332782         1.507519         2.820662
 H         0.343686         2.439663         1.280057
 H        -3.228941         3.373651         0.211809
 H        -2.053794         4.285775         1.291748
 H        -1.508640         3.241634        -1.811766
 H        -0.286822         3.430321        -0.578936
 H        -2.271690         0.887427        -0.633557
 H        -1.487290        -0.641689         2.595374
 H        -2.637500        -0.772238         1.103762
