19
Iteration:  4245
 O         0.347970        -0.340631         0.418731
 C        -0.711747         0.592421         0.837055
 C        -0.305539         1.776949         1.588125
 C        -1.834780         2.059915         1.180355
 C        -2.250691         3.393314         0.623314
 C        -1.360467         2.957624        -0.683690
 C        -1.522775         1.410346        -0.161021
 O        -2.685711         1.231015         1.921432
 C        -1.926080        -0.105249         1.622282
 H        -0.013237        -0.889704        -0.394719
 H        -0.131696         1.746803         2.748308
 H         0.574721         2.272151         1.098420
 H        -3.517794         3.377271         0.539119
 H        -1.976196         4.319889         1.168197
 H        -1.774463         3.158946        -1.667565
 H        -0.242395         3.359138        -0.671403
 H        -2.309300         0.878926        -0.708476
 H        -1.676408        -0.531241         2.648366
 H        -2.593877        -0.689125         1.087052
