19
Iteration:  3279
 O         0.254792        -0.432690         0.381656
 C        -0.699091         0.575452         0.790348
 C        -0.327451         1.750907         1.650915
 C        -1.874293         2.040356         1.207580
 C        -2.223044         3.419441         0.627639
 C        -1.305501         2.970022        -0.643630
 C        -1.526169         1.466648        -0.235328
 O        -2.733530         1.167930         1.886500
 C        -1.896413        -0.051284         1.559666
 H         1.103902        -0.171605         0.909594
 H        -0.223371         1.606733         2.743153
 H         0.420966         2.459533         1.372986
 H        -3.341431         3.642581         0.399150
 H        -1.793271         4.294270         1.184085
 H        -1.742772         3.574268        -1.424065
 H        -0.227980         3.299205        -0.445995
 H        -2.384159         0.919859        -0.675565
 H        -1.430808        -0.414139         2.507250
 H        -2.519990        -0.772439         1.006316
