19
Iteration:  2086charge 0 multiplicity 1
 O         0.300457        -0.403644         0.383740
 C        -0.663318         0.538040         0.695171
 C        -0.401307         1.728386         1.687475
 C        -1.875084         2.065749         1.240781
 C        -2.165931         3.464538         0.624305
 C        -1.283128         3.023733        -0.583876
 C        -1.456031         1.494484        -0.156653
 O        -2.748871         1.127901         1.849322
 C        -2.017742        -0.113988         1.623036
 H         1.027085         0.069628        -0.222802
 H        -0.311856         1.338666         2.695181
 H         0.392279         2.474597         1.292431
 H        -3.265784         3.423606         0.482225
 H        -1.771404         4.418044         1.194290
 H        -1.661405         3.191176        -1.561632
 H        -0.332662         3.681369        -0.711889
 H        -2.196393         1.157001        -0.850096
 H        -1.749447        -0.670095         2.625250
 H        -2.624595        -0.821731         1.128966
