19
Iteration:  4171
 O         0.340327        -0.302227         0.289124
 C        -0.666740         0.548277         0.775638
 C        -0.378930         1.830987         1.618896
 C        -1.881295         2.094672         1.258742
 C        -2.162055         3.453621         0.617295
 C        -1.328489         2.890766        -0.663677
 C        -1.520845         1.449055        -0.165581
 O        -2.801412         1.179770         1.974887
 C        -1.863120        -0.094555         1.646174
 H         0.324897        -1.310724         0.585159
 H        -0.198970         1.599916         2.673819
 H         0.207304         2.386230         0.912173
 H        -3.080671         3.549162         0.074045
 H        -1.817357         4.298322         1.140821
 H        -1.861327         2.912682        -1.592867
 H        -0.312444         3.331795        -0.767953
 H        -2.237884         1.010444        -0.834434
 H        -1.562029        -0.597120         2.624573
 H        -2.482261        -1.016510         1.274747
