19
Iteration:  2001
 O         0.313566        -0.423181         0.312021
 C        -0.697714         0.507181         0.754524
 C        -0.421714         1.723447         1.858317
 C        -1.841937         2.071993         1.193748
 C        -2.228306         3.457560         0.605491
 C        -1.342836         3.038965        -0.619163
 C        -1.412637         1.475943        -0.197811
 O        -2.641075         1.138935         1.820873
 C        -2.048866        -0.070731         1.607561
 H         1.087526         0.058562         0.143422
 H        -0.174205         1.479478         2.871487
 H         0.488542         2.302311         1.354826
 H        -3.350852         3.610701         0.455684
 H        -2.060191         4.387533         1.223583
 H        -1.858605         3.227716        -1.499306
 H        -0.257896         3.481516        -0.638406
 H        -2.317656         1.110900        -0.677615
 H        -1.649945        -0.429711         2.492668
 H        -2.753489        -0.872468         1.072540
