19
Iteration:   586charge 0 multiplicity 1
 O         0.248883        -0.341115         0.321018
 C        -0.736928         0.516465         0.783212
 C        -0.356387         1.830032         1.678137
 C        -1.871401         2.119132         1.175689
 C        -2.169218         3.494169         0.571722
 C        -1.334246         2.944381        -0.591699
 C        -1.548868         1.446448        -0.186011
 O        -2.645200         1.110402         1.951300
 C        -1.869689        -0.157873         1.571083
 H         0.669827        -0.828442         1.060613
 H        -0.315308         1.638141         2.818247
 H         0.302397         2.572571         1.347756
 H        -3.208234         3.605539         0.203672
 H        -1.906259         4.457401         1.040955
 H        -1.850861         3.046526        -1.552448
 H        -0.344004         3.361679        -0.521244
 H        -2.309951         1.067061        -0.799304
 H        -1.616751        -0.631207         2.608324
 H        -2.453689        -0.644206         0.768730
