19
Iteration:   621charge 0 multiplicity 1
 O         0.353305        -0.370592         0.240353
 C        -0.708207         0.551814         0.752598
 C        -0.364209         1.782833         1.750605
 C        -1.819579         2.027370         1.251482
 C        -2.170602         3.449369         0.615532
 C        -1.370448         2.926874        -0.629928
 C        -1.478294         1.468057        -0.180591
 O        -2.771499         1.211482         1.880150
 C        -1.924942        -0.064029         1.609112
 H         0.745189        -0.788732         0.994108
 H        -0.274964         1.579248         2.776041
 H         0.351342         2.630191         1.481002
 H        -3.230665         3.509792         0.439917
 H        -1.726546         4.385068         1.071354
 H        -2.077394         3.089621        -1.528537
 H        -0.447509         3.335106        -0.928008
 H        -2.293882         0.891182        -0.654308
 H        -1.779572        -0.628266         2.593691
 H        -2.552785        -0.893373         1.153715
