19
Iteration:  2334charge 0 multiplicity 1
 O         0.311676        -0.390873         0.384834
 C        -0.702714         0.513934         0.815004
 C        -0.484236         1.711069         1.726014
 C        -1.880497         2.079357         1.188132
 C        -2.146289         3.487705         0.644597
 C        -1.230612         3.029451        -0.645766
 C        -1.543849         1.548912        -0.193812
 O        -2.714549         1.112735         1.900913
 C        -1.898429        -0.139157         1.532552
 H         0.715220        -0.127148        -0.550143
 H        -0.176141         1.551295         2.757617
 H         0.319409         2.490651         1.356139
 H        -3.257302         3.555386         0.503178
 H        -1.986694         4.349480         1.470024
 H        -1.652758         3.189185        -1.605612
 H        -0.148530         3.352436        -0.455273
 H        -2.426193         1.038180        -0.739654
 H        -1.764683        -0.647807         2.407097
 H        -2.552415        -0.812768         0.849141
