19
Iteration:  3064
 O         0.214552        -0.330674         0.307739
 C        -0.774755         0.507853         0.773953
 C        -0.417696         1.786671         1.723261
 C        -1.901303         2.027626         1.217970
 C        -2.135082         3.484212         0.514469
 C        -1.183616         3.025706        -0.605357
 C        -1.559700         1.462697        -0.176901
 O        -2.716721         1.048934         1.965548
 C        -1.888541        -0.092579         1.590471
 H         1.132661        -0.006112         0.570882
 H        -0.279819         1.780076         2.837307
 H         0.286606         2.533478         1.287483
 H        -3.120717         3.475475         0.117663
 H        -1.914526         4.324302         1.075836
 H        -1.562001         3.251908        -1.567330
 H        -0.055752         3.290842        -0.432329
 H        -2.350051         0.961652        -0.820940
 H        -1.388818        -0.391085         2.499707
 H        -2.410521        -0.877880         0.965839
