19
Iteration:  3144
 O         0.293112        -0.432677         0.364904
 C        -0.690472         0.566463         0.777719
 C        -0.428184         1.813872         1.638739
 C        -1.877866         2.067189         1.207545
 C        -2.195223         3.463003         0.563171
 C        -1.334988         2.992001        -0.569924
 C        -1.538222         1.486630        -0.204314
 O        -2.674742         1.102270         1.915432
 C        -1.872989        -0.037729         1.556081
 H         0.714197        -0.853458         1.186860
 H        -0.291338         1.613667         2.714726
 H         0.385455         2.315810         1.192132
 H        -3.209187         3.702072         0.308107
 H        -1.959075         4.301499         1.272477
 H        -1.533998         3.319591        -1.739777
 H        -0.345180         3.368251        -0.416918
 H        -2.390534         1.058290        -0.621499
 H        -1.598608        -0.760600         2.437637
 H        -2.427500        -0.728360         0.908924
