19
Iteration:   478charge 0 multiplicity 1
 O         0.260855        -0.340377         0.343569
 C        -0.660767         0.594016         0.748317
 C        -0.520837         1.781460         1.608347
 C        -1.947678         2.069878         1.103037
 C        -2.124508         3.423493         0.649776
 C        -1.279425         2.976391        -0.585335
 C        -1.589397         1.425384        -0.215306
 O        -2.602997         1.172127         2.010771
 C        -1.852543        -0.107105         1.583235
 H         0.686735        -0.724350         1.098257
 H        -0.539887         1.684942         2.770400
 H         0.245015         2.394804         1.295489
 H        -3.200360         3.536739         0.383266
 H        -1.722505         4.304443         1.160555
 H        -1.639927         3.224985        -1.604483
 H        -0.201799         3.213278        -0.532608
 H        -2.362183         0.916809        -0.923559
 H        -1.609070        -0.792130         2.355928
 H        -2.495178        -0.757568         0.981603
