19
Iteration:  3971
 O         0.293898        -0.350206         0.329925
 C        -0.633392         0.554254         0.781617
 C        -0.372501         1.788938         1.664221
 C        -1.798311         2.069965         1.181949
 C        -2.295790         3.411216         0.635754
 C        -1.306764         2.992474        -0.636619
 C        -1.473674         1.430532        -0.148175
 O        -2.700773         1.139866         1.911425
 C        -1.976762        -0.034088         1.644567
 H        -0.155681        -1.091297         0.071768
 H        -0.074244         1.829023         2.669888
 H         0.441513         2.341821         1.135976
 H        -3.336623         3.414180         0.296649
 H        -2.100277         4.274773         1.133954
 H        -1.403834         3.293475        -1.714087
 H        -0.299208         3.377421        -0.441092
 H        -2.287001         1.045036        -0.652282
 H        -1.444388        -0.582585         2.538733
 H        -2.557544        -0.824896         0.983357
