19
Iteration:  3917charge 0 multiplicity 1
 O         0.358783        -0.263598         0.383138
 C        -0.737262         0.501236         0.763280
 C        -0.454286         1.797102         1.608764
 C        -1.901835         2.070408         1.244867
 C        -2.117294         3.488588         0.588637
 C        -1.310282         2.978464        -0.645764
 C        -1.608947         1.443537        -0.170595
 O        -2.647560         1.112203         1.913344
 C        -1.925841        -0.146941         1.615920
 H         0.382885        -1.165043         0.565599
 H        -0.273805         1.515171         2.587035
 H         0.351962         2.461911         1.227242
 H        -3.104482         4.006490         0.363306
 H        -1.574041         4.245841         1.047193
 H        -1.792827         3.163919        -1.544054
 H        -0.300731         3.267842        -0.413807
 H        -2.362596         1.121216        -0.851843
 H        -1.468001        -0.632863         2.534936
 H        -2.584250        -0.879207         1.040658
