19
Iteration:  1516
 O         0.211090        -0.487782         0.308078
 C        -0.690260         0.538820         0.787697
 C        -0.424220         1.836650         1.736920
 C        -1.893219         2.106068         1.151863
 C        -2.163552         3.518191         0.610666
 C        -1.381708         3.016495        -0.637424
 C        -1.447309         1.472600        -0.123346
 O        -2.626195         1.078905         1.941814
 C        -1.928655        -0.092991         1.568626
 H         1.064091        -0.011107         0.131854
 H        -0.391638         1.473859         2.737875
 H         0.422777         2.683077         1.524434
 H        -3.158599         3.711891         0.356153
 H        -1.608814         4.315427         1.240133
 H        -1.793343         3.015175        -1.595748
 H        -0.371194         3.421207        -0.737391
 H        -2.168020         0.985330        -0.706373
 H        -1.732189        -0.773447         2.339543
 H        -2.494952        -0.768176         0.934192
