19
Iteration:  3147charge 0 multiplicity 1
 O         0.277295        -0.426931         0.356070
 C        -0.655627         0.551732         0.793117
 C        -0.428943         1.821621         1.626171
 C        -1.865342         2.038324         1.219486
 C        -2.206160         3.448192         0.566833
 C        -1.329275         2.995688        -0.575657
 C        -1.555250         1.510403        -0.195395
 O        -2.676417         1.099916         1.918549
 C        -1.861543        -0.021516         1.558049
 H         0.652334        -0.877004         1.217303
 H        -0.380479         1.505677         2.649424
 H         0.406292         2.451176         1.169248
 H        -3.309219         3.707643         0.212398
 H        -1.939877         4.332621         1.268194
 H        -1.409295         3.288254        -1.663593
 H        -0.299835         3.310390        -0.444698
 H        -2.425322         1.049079        -0.715168
 H        -1.730590        -0.686404         2.418797
 H        -2.368759        -0.715284         0.940411
