19
Iteration:  4793charge 0 multiplicity 1
 O         0.266122        -0.411018         0.319817
 C        -0.702576         0.556964         0.776219
 C        -0.320869         1.838168         1.596385
 C        -1.864828         2.145632         1.209139
 C        -2.293035         3.431169         0.550872
 C        -1.340642         2.916526        -0.619013
 C        -1.543241         1.389746        -0.178868
 O        -2.570985         1.173888         2.056319
 C        -1.943063        -0.001954         1.595178
 H         0.576506        -0.868046         1.117426
 H        -0.014193         1.578315         2.603960
 H         0.267743         2.517858         1.001854
 H        -3.231754         3.221014        -0.028593
 H        -2.195755         4.491215         0.989143
 H        -1.732208         3.144242        -1.595017
 H        -0.346564         3.086896        -0.525879
 H        -2.310640         0.908031        -0.689827
 H        -1.553225        -0.701126         2.387170
 H        -2.496412        -0.626417         0.927730
