19
Iteration:  2849
 O         0.327702        -0.361085         0.558963
 C        -0.674594         0.532986         0.702239
 C        -0.380857         1.678246         1.658443
 C        -1.907832         2.017681         1.170181
 C        -2.158303         3.465477         0.690376
 C        -1.317546         3.016297        -0.588827
 C        -1.589809         1.516893        -0.222119
 O        -2.699273         1.137949         1.890609
 C        -1.933132        -0.008537         1.472657
 H         0.518571        -0.655671        -0.306722
 H        -0.315006         1.421366         2.676428
 H         0.400742         2.428472         1.344078
 H        -3.124912         3.440550         0.355158
 H        -1.754316         4.294519         1.324852
 H        -1.640637         3.349971        -1.565627
 H        -0.249152         3.301850        -0.458182
 H        -2.396330         1.110137        -0.840305
 H        -1.515663        -0.766789         2.254623
 H        -2.451213        -0.712886         0.797573
