19
Iteration:   441
 O         0.259239        -0.340657         0.273118
 C        -0.666864         0.568076         0.768449
 C        -0.373121         1.728178         1.604673
 C        -1.849840         2.078940         1.235311
 C        -2.195838         3.438280         0.590952
 C        -1.331604         2.901806        -0.602176
 C        -1.510076         1.494501        -0.092983
 O        -2.738620         1.169655         1.889599
 C        -1.881313        -0.101696         1.624620
 H         0.607155        -0.696669         1.037918
 H        -0.218366         1.582391         2.657711
 H         0.392107         2.472117         1.229524
 H        -3.260764         3.426636         0.247323
 H        -2.023001         4.420601         1.033197
 H        -1.597785         3.225501        -1.589607
 H        -0.356222         3.404384        -0.419890
 H        -2.222687         0.982573        -0.609751
 H        -1.546769        -0.353486         2.722169
 H        -2.418398        -0.757856         0.896525
