19
Iteration:  2464
 O         0.358200        -0.345398         0.454456
 C        -0.725820         0.532751         0.717464
 C        -0.402521         1.713745         1.651600
 C        -1.973558         2.029273         1.148409
 C        -2.166207         3.431005         0.637079
 C        -1.213343         3.048397        -0.470493
 C        -1.545014         1.509656        -0.202019
 O        -2.723182         1.098721         1.915992
 C        -1.891482        -0.049488         1.472330
 H         0.024867        -1.147333         0.223358
 H        -0.257931         1.638126         2.701094
 H         0.211110         2.511259         1.092853
 H        -3.207221         3.736061         0.415831
 H        -1.696699         4.280151         1.225785
 H        -1.473999         3.374771        -1.558175
 H        -0.173102         3.524647        -0.451789
 H        -2.326219         0.955147        -0.875135
 H        -1.599132        -0.594700         2.372653
 H        -2.660006        -0.648782         0.840327
