19
Iteration:  3659charge 0 multiplicity 1
 O         0.337924        -0.382932         0.387007
 C        -0.699130         0.538128         0.791386
 C        -0.478846         1.793915         1.619667
 C        -1.857973         2.119753         1.164658
 C        -2.159460         3.459734         0.632385
 C        -1.327917         2.900214        -0.645579
 C        -1.534686         1.437595        -0.199864
 O        -2.705675         1.156043         1.956766
 C        -1.869460        -0.093363         1.653837
 H         0.369419        -0.316974        -0.551170
 H        -0.484165         1.626451         2.704060
 H         0.361894         2.417337         1.229402
 H        -3.122513         3.741501         0.358743
 H        -1.751894         4.399496         1.167557
 H        -1.863188         3.261842        -1.470236
 H        -0.281686         3.288298        -0.541235
 H        -2.264052         0.992828        -0.860565
 H        -1.358664        -0.575091         2.497104
 H        -2.606012        -0.813055         1.136343
