19
Iteration:   700
 O         0.241467        -0.323254         0.223376
 C        -0.696494         0.496528         0.828483
 C        -0.354461         1.828676         1.659473
 C        -1.818637         2.091504         1.217366
 C        -2.202744         3.450725         0.586495
 C        -1.316240         2.952441        -0.574339
 C        -1.467432         1.458423        -0.101241
 O        -2.697551         1.141500         1.865674
 C        -1.942669        -0.128642         1.624426
 H         0.731158        -0.671574         0.894515
 H        -0.221989         1.565583         2.685627
 H         0.503663         2.407310         1.270472
 H        -3.268600         3.370150         0.256948
 H        -2.094403         4.398951         1.118671
 H        -1.691008         3.076781        -1.579340
 H        -0.397264         3.591378        -0.545826
 H        -2.325526         0.845556        -0.587828
 H        -1.767007        -0.525335         2.573488
 H        -2.602494        -0.677302         0.955327
