19
Iteration:  4765
 O         0.309776        -0.347014         0.243428
 C        -0.713862         0.527786         0.756804
 C        -0.389925         1.781988         1.702478
 C        -1.840083         2.104418         1.140979
 C        -2.237742         3.393085         0.589006
 C        -1.363928         2.936299        -0.727490
 C        -1.528349         1.419305        -0.142737
 O        -2.640830         1.222298         2.006378
 C        -1.916637        -0.017932         1.712720
 H         0.542846        -1.000273         1.005014
 H        -0.175142         1.481451         2.759175
 H         0.326164         2.428107         1.165929
 H        -3.263799         3.398217         0.286590
 H        -1.954061         4.307402         1.084169
 H        -1.775473         2.947671        -1.750485
 H        -0.221418         3.273527        -0.649601
 H        -2.422182         0.880859        -0.700177
 H        -1.351375        -0.363480         2.575224
 H        -2.537568        -0.821287         1.203784
