19
Iteration:   529charge 0 multiplicity 1
 O         0.284753        -0.312410         0.231725
 C        -0.711256         0.483776         0.784035
 C        -0.403198         1.701920         1.748886
 C        -1.825239         2.146963         1.228765
 C        -2.245416         3.425056         0.621658
 C        -1.352599         2.932599        -0.694940
 C        -1.484420         1.463866        -0.144490
 O        -2.656582         1.150346         1.868669
 C        -1.923966        -0.023443         1.632806
 H         0.710931        -0.765375         0.935060
 H        -0.380710         1.534427         2.877767
 H         0.376500         2.375953         1.480618
 H        -3.308550         3.535372         0.320525
 H        -1.832945         4.311139         1.060108
 H        -1.619344         3.126710        -1.686574
 H        -0.355462         3.439450        -0.615555
 H        -2.337321         1.097461        -0.555143
 H        -1.520315        -0.474077         2.665695
 H        -2.446997        -0.886678         1.141428
