19
Iteration:  2188charge 0 multiplicity 1
 O         0.276994        -0.401590         0.380605
 C        -0.643283         0.573187         0.783959
 C        -0.404629         1.714614         1.718317
 C        -1.874073         2.055226         1.288361
 C        -2.115491         3.453948         0.628496
 C        -1.303385         3.027146        -0.628944
 C        -1.515267         1.489015        -0.161985
 O        -2.757339         1.124049         1.818931
 C        -1.928368        -0.086365         1.575694
 H         0.663075        -0.234967        -0.407561
 H        -0.238551         1.428402         2.787339
 H         0.216485         2.498523         1.399784
 H        -3.273154         3.688488         0.456571
 H        -1.979221         4.317284         1.209847
 H        -1.682874         3.306471        -1.628727
 H        -0.320018         3.278632        -0.583366
 H        -2.227870         0.999802        -0.838267
 H        -1.605749        -0.566944         2.492651
 H        -2.469466        -0.732626         0.838101
