19
Iteration:   439charge 0 multiplicity 1
 O         0.247231        -0.336574         0.266824
 C        -0.670871         0.554622         0.773995
 C        -0.360765         1.741832         1.632477
 C        -1.852587         2.076547         1.248577
 C        -2.196229         3.427589         0.585786
 C        -1.339115         2.903438        -0.591594
 C        -1.510129         1.478636        -0.096495
 O        -2.737097         1.180728         1.876151
 C        -1.870848        -0.087137         1.609119
 H         0.657374        -0.749028         1.036160
 H        -0.209490         1.586477         2.638398
 H         0.445770         2.538653         1.250578
 H        -3.236182         3.406694         0.242691
 H        -2.039276         4.416599         1.078549
 H        -1.589816         3.276276        -1.637632
 H        -0.355649         3.366595        -0.508877
 H        -2.274736         0.934493        -0.608269
 H        -1.581641        -0.375173         2.725459
 H        -2.391324        -0.786358         0.907981
