19
Iteration:  2509charge 0 multiplicity 1
 O         0.295921        -0.331036         0.274845
 C        -0.663508         0.539820         0.811712
 C        -0.446541         1.757602         1.794690
 C        -1.905380         2.062012         1.275888
 C        -2.155913         3.414782         0.521154
 C        -1.274321         2.976644        -0.574154
 C        -1.415950         1.509830        -0.080266
 O        -2.772307         1.132049         1.846028
 C        -1.939105        -0.122259         1.577736
 H         0.227713        -0.043369        -0.567359
 H        -0.200019         1.361755         2.834925
 H         0.346695         2.317249         1.351593
 H        -3.093255         3.682069         0.097265
 H        -1.805306         4.330671         1.189882
 H        -1.554402         3.205060        -1.658843
 H        -0.138574         3.372858        -0.432157
 H        -2.267668         0.940922        -0.706347
 H        -1.748440        -0.515367         2.544519
 H        -2.553610        -0.863065         0.857500
