19
Iteration:  4816
 O         0.196490        -0.433414         0.324284
 C        -0.727709         0.533029         0.788361
 C        -0.389026         1.869258         1.627290
 C        -1.885447         2.138934         1.205373
 C        -2.236591         3.381330         0.547560
 C        -1.356257         2.923391        -0.716147
 C        -1.527203         1.474094        -0.163923
 O        -2.555340         1.184647         2.031890
 C        -1.825064        -0.079816         1.601430
 H         0.749782        -0.824500         1.132146
 H        -0.485910         1.790798         2.722777
 H         0.261014         2.611599         1.219565
 H        -3.317002         3.489988         0.200688
 H        -1.700497         4.281086         1.089505
 H        -1.750901         3.105379        -1.647106
 H        -0.423981         3.368825        -0.529410
 H        -2.340718         1.033631        -0.631231
 H        -1.479497        -0.764808         2.446975
 H        -2.418223        -0.725965         0.977160
