19
Iteration:   206
 O         0.265191        -0.353674         0.263700
 C        -0.670008         0.513991         0.826884
 C        -0.401645         1.813021         1.730988
 C        -1.846132         2.108464         1.186942
 C        -2.179830         3.462118         0.551378
 C        -1.369623         2.953778        -0.631209
 C        -1.530620         1.449925        -0.128321
 O        -2.626386         1.160380         1.886315
 C        -1.936060        -0.127782         1.578135
 H         0.630956        -0.983919         0.929992
 H        -0.300991         1.802003         2.880029
 H         0.502772         2.295409         1.426141
 H        -3.271182         3.643118         0.468841
 H        -1.793149         4.301728         1.139913
 H        -1.855190         3.141889        -1.599627
 H        -0.378902         3.421413        -0.725417
 H        -2.349195         0.987107        -0.644283
 H        -1.605241        -0.421327         2.646082
 H        -2.608000        -0.907058         1.052474
