19
Iteration:  4412charge 0 multiplicity 1
 O         0.290579        -0.369675         0.301265
 C        -0.755873         0.484861         0.798987
 C        -0.420619         1.754707         1.562091
 C        -1.886398         2.098128         1.145302
 C        -2.201236         3.378507         0.592959
 C        -1.358740         2.951785        -0.634307
 C        -1.550388         1.436200        -0.202047
 O        -2.619642         1.222870         1.954274
 C        -1.815847        -0.018156         1.728691
 H         0.782720        -0.788458         1.089126
 H        -0.364786         1.837118         2.632577
 H         0.413813         2.343873         1.186811
 H        -3.353686         3.397878         0.444825
 H        -1.956316         4.250514         1.179213
 H        -1.881477         3.368637        -1.559476
 H        -0.374344         3.320702        -0.671657
 H        -2.168280         0.893461        -0.858840
 H        -1.455136        -0.431833         2.651726
 H        -2.523106        -0.607000         1.271939
