19
Iteration:  2170charge 0 multiplicity 1
 O         0.309702        -0.399655         0.471494
 C        -0.729637         0.526815         0.668676
 C        -0.412022         1.752688         1.612775
 C        -1.871646         2.094537         1.156486
 C        -2.192155         3.415890         0.707185
 C        -1.245604         2.932814        -0.494782
 C        -1.530741         1.474673        -0.221740
 O        -2.723765         1.140980         1.890466
 C        -1.906690        -0.023252         1.474226
 H         0.713101         0.007161        -0.228777
 H        -0.254276         1.614752         2.707721
 H         0.495713         2.394419         1.422747
 H        -3.173295         3.594036         0.351892
 H        -1.841728         4.272455         1.357369
 H        -1.721456         3.261034        -1.464731
 H        -0.203901         3.258405        -0.191007
 H        -2.505441         1.139737        -0.720066
 H        -1.584538        -0.485543         2.419802
 H        -2.654364        -0.746041         1.080789
