19
Iteration:  2683
 O         0.402987        -0.333281         0.373058
 C        -0.703262         0.521731         0.720368
 C        -0.489086         1.730284         1.726589
 C        -1.866980         2.084372         1.175804
 C        -2.150212         3.438310         0.677582
 C        -1.233187         3.030159        -0.581530
 C        -1.515081         1.449198        -0.172165
 O        -2.759150         1.130455         1.867806
 C        -1.957338        -0.053592         1.578171
 H         0.026585        -0.858079        -0.473023
 H        -0.373567         1.601512         2.867412
 H         0.199701         2.434441         1.338729
 H        -3.147552         3.436149         0.342079
 H        -1.877064         4.309706         1.408793
 H        -1.726202         3.156417        -1.592961
 H        -0.113923         3.312793        -0.657060
 H        -2.251592         1.146077        -0.955749
 H        -1.556846        -0.543362         2.600687
 H        -2.511206        -0.885077         1.133759
