19
Iteration:  2254charge 0 multiplicity 1
 O         0.288146        -0.405493         0.427981
 C        -0.760277         0.477748         0.685402
 C        -0.386151         1.712623         1.588837
 C        -1.912477         2.092574         1.252310
 C        -2.222655         3.455405         0.658074
 C        -1.183035         3.011423        -0.539005
 C        -1.538579         1.544007        -0.185112
 O        -2.710604         1.109239         1.914258
 C        -1.920389        -0.079669         1.527253
 H         1.136281         0.197056         0.230028
 H        -0.164811         1.604246         2.654941
 H         0.272157         2.286362         1.027531
 H        -3.310569         3.535085         0.158905
 H        -2.066915         4.359444         1.224439
 H        -1.327163         3.431141        -1.544776
 H        -0.236555         3.311017        -0.412732
 H        -2.258642         1.022867        -0.829003
 H        -1.527723        -0.536629         2.480694
 H        -2.695090        -0.779650         1.046666
