19
Iteration:  3962
 O         0.279867        -0.348457         0.319568
 C        -0.676754         0.605415         0.743399
 C        -0.357994         1.796154         1.685764
 C        -1.881703         2.070832         1.229906
 C        -2.246438         3.401134         0.593274
 C        -1.276892         2.924576        -0.597926
 C        -1.455391         1.507270        -0.193190
 O        -2.693598         1.131236         1.929800
 C        -1.900906        -0.053038         1.612336
 H        -0.151936        -1.145723         0.220128
 H        -0.117239         1.733998         2.717890
 H         0.254957         2.492024         1.129450
 H        -3.358545         3.383167         0.398542
 H        -1.989359         4.303275         1.074765
 H        -1.656788         2.893627        -1.531429
 H        -0.277940         3.328312        -0.375598
 H        -2.223527         1.003017        -0.777989
 H        -1.705330        -0.532582         2.609134
 H        -2.611007        -0.738273         1.023558
