19
Iteration:  4474charge 0 multiplicity 1
 O         0.238277        -0.388868         0.258708
 C        -0.759804         0.562426         0.804665
 C        -0.383588         1.903832         1.706184
 C        -1.884453         2.122320         1.195564
 C        -2.192796         3.447122         0.559952
 C        -1.334738         2.827428        -0.719555
 C        -1.557275         1.442577        -0.194700
 O        -2.588424         1.117318         2.015583
 C        -1.913040        -0.052676         1.668196
 H         1.061269        -0.220026         0.818113
 H        -0.490382         1.825642         2.838750
 H         0.410975         2.531027         1.304554
 H        -3.209231         3.702630         0.315562
 H        -1.659740         4.258921         1.101543
 H        -1.727281         3.150064        -1.733052
 H        -0.259268         3.032443        -0.701205
 H        -2.363975         0.874902        -0.708693
 H        -1.354548        -0.774141         2.409174
 H        -2.517691        -0.806421         1.082696
