19
Iteration:   952charge 0 multiplicity 1
 O         0.295487        -0.323920         0.262475
 C        -0.741068         0.458304         0.700972
 C        -0.403951         1.704141         1.610339
 C        -1.879939         2.122297         1.164305
 C        -2.255484         3.484570         0.595313
 C        -1.206305         3.028836        -0.595696
 C        -1.559415         1.508503        -0.221170
 O        -2.700234         1.151268         2.060885
 C        -1.884696        -0.180061         1.685435
 H         0.862557        -0.658971         0.946307
 H        -0.396044         1.546173         2.737387
 H         0.423000         2.331976         1.321225
 H        -3.270085         3.496343         0.027284
 H        -2.163010         4.425315         1.180447
 H        -1.533670         3.240899        -1.560693
 H        -0.123907         3.494056        -0.667080
 H        -2.236458         1.065007        -0.825139
 H        -1.379105        -0.552329         2.664326
 H        -2.556542        -0.876615         1.087388
