19
Iteration:  1832charge 0 multiplicity 1
 O         0.325598        -0.351764         0.433908
 C        -0.723872         0.501145         0.797118
 C        -0.374511         1.715304         1.622637
 C        -1.825863         2.094487         1.218352
 C        -2.203402         3.456654         0.663892
 C        -1.248396         3.042792        -0.562530
 C        -1.498243         1.486492        -0.187177
 O        -2.716095         1.119904         1.826356
 C        -1.976355        -0.127406         1.553151
 H         0.271101        -0.497881        -0.560746
 H        -0.287738         1.627908         2.728401
 H         0.253279         2.520775         1.260759
 H        -3.234005         3.669635         0.471240
 H        -1.987425         4.429713         1.249252
 H        -1.644285         3.420890        -1.573542
 H        -0.206818         3.266747        -0.503340
 H        -2.390417         1.025118        -0.580120
 H        -1.811631        -0.738665         2.502859
 H        -2.517385        -0.783484         0.940844
