19
Iteration:    24
 O         0.266642        -0.347774         0.161262
 C        -0.671118         0.496112         0.870522
 C        -0.317750         1.845197         1.725214
 C        -1.804614         2.124541         1.314530
 C        -2.204091         3.399900         0.560622
 C        -1.281740         2.935826        -0.679240
 C        -1.452678         1.460924        -0.031295
 O        -2.786375         1.163469         1.844125
 C        -1.984893        -0.073337         1.642084
 H         0.635168        -1.038053         0.858675
 H        -0.042297         1.863056         2.727450
 H         0.319966         2.524774         1.053577
 H        -3.217906         3.254414         0.200575
 H        -2.133015         4.419504         0.957846
 H        -1.798122         2.996675        -1.676059
 H        -0.274319         3.328522        -0.751239
 H        -2.291076         0.895942        -0.557196
 H        -1.816553        -0.449375         2.651012
 H        -2.479632        -0.844260         0.977713
