19
Iteration:  2051charge 0 multiplicity 1
 O         0.227753        -0.381223         0.475461
 C        -0.671373         0.592355         0.715564
 C        -0.479251         1.863753         1.617683
 C        -1.940001         2.046142         1.161762
 C        -2.139202         3.450650         0.641972
 C        -1.182536         2.971909        -0.533231
 C        -1.613081         1.455407        -0.224894
 O        -2.630564         1.074169         1.930713
 C        -1.893258        -0.115647         1.498502
 H         0.678221        -0.478106        -0.481003
 H        -0.483125         1.569851         2.708708
 H         0.286232         2.618893         1.613089
 H        -3.160489         3.708122         0.458080
 H        -1.745377         4.259480         1.337150
 H        -1.439441         3.359380        -1.562478
 H        -0.248462         3.224085        -0.058311
 H        -2.395296         1.070547        -0.917306
 H        -1.517885        -0.721176         2.470517
 H        -2.523218        -0.609958         0.768969
