19
Iteration:  3738
 O         0.269203        -0.400415         0.350314
 C        -0.654968         0.493880         0.729355
 C        -0.418820         1.740681         1.614771
 C        -1.904283         2.025560         1.151530
 C        -2.219413         3.464610         0.647901
 C        -1.337234         3.039253        -0.653729
 C        -1.497986         1.401169        -0.217066
 O        -2.702725         1.221938         2.028601
 C        -1.887389        -0.082414         1.641682
 H         1.178511        -0.166670         0.663692
 H        -0.005019         1.582647         2.677654
 H         0.262619         2.399462         0.977464
 H        -3.264009         3.334972         0.272685
 H        -2.100859         4.499888         1.246216
 H        -1.628016         3.386235        -1.716508
 H        -0.241408         3.339342        -0.594922
 H        -2.129129         0.976186        -0.963457
 H        -1.562010        -0.374317         2.717018
 H        -2.555460        -0.850871         1.048314
