19
Iteration:  1304charge 0 multiplicity 1
 O         0.318133        -0.331508         0.225253
 C        -0.648546         0.547730         0.778734
 C        -0.436193         1.754552         1.789963
 C        -1.810150         2.095239         1.257022
 C        -2.108498         3.415044         0.658989
 C        -1.412490         2.901020        -0.656324
 C        -1.493074         1.398204        -0.238551
 O        -2.718170         1.176203         1.875563
 C        -1.996558         0.024181         1.585150
 H         0.941531        -0.528938         1.070700
 H        -0.269502         1.305825         2.889952
 H         0.290126         2.451190         1.538750
 H        -3.279251         3.430243         0.584105
 H        -1.668284         4.312823         1.218449
 H        -1.890517         3.203792        -1.628205
 H        -0.374187         3.250965        -0.716141
 H        -2.253571         0.925580        -0.848713
 H        -1.721277        -0.501189         2.508196
 H        -2.525145        -0.725569         1.020831
