19
Iteration:   554
 O         0.272547        -0.343751         0.272487
 C        -0.680601         0.545686         0.745078
 C        -0.423512         1.797018         1.610495
 C        -1.942415         2.066545         1.196660
 C        -2.195096         3.406857         0.589513
 C        -1.238813         2.939303        -0.570070
 C        -1.537549         1.440897        -0.231603
 O        -2.687122         1.146796         2.054050
 C        -1.865408        -0.009484         1.612041
 H         0.608663        -0.881951         1.066421
 H        -0.314276         1.517375         2.702757
 H         0.178566         2.612461         1.384506
 H        -3.206263         3.416531         0.140618
 H        -1.971328         4.331861         1.162926
 H        -1.501629         3.182736        -1.610898
 H        -0.257412         3.372149        -0.520062
 H        -2.302725         1.087113        -0.938405
 H        -1.615638        -0.785579         2.486008
 H        -2.400801        -0.672775         0.836832
