19
Iteration:  4867charge 0 multiplicity 1
 O         0.270104        -0.263159         0.263246
 C        -0.690782         0.534671         0.788831
 C        -0.416396         1.768662         1.635563
 C        -1.887462         2.113840         1.210595
 C        -2.078483         3.468289         0.552755
 C        -1.359305         2.859340        -0.633556
 C        -1.621557         1.319581        -0.191539
 O        -2.670619         1.168675         1.926744
 C        -1.869924        -0.019867         1.734923
 H         0.830816        -0.638304         0.837660
 H        -0.133239         1.827589         2.723915
 H         0.221322         2.413082         0.998290
 H        -3.145810         3.565557         0.456722
 H        -1.649432         4.296282         1.002033
 H        -1.746597         3.173486        -1.728650
 H        -0.300717         3.203054        -0.603213
 H        -2.552960         0.738422        -0.596594
 H        -1.564636        -0.456976         2.698848
 H        -2.481991        -0.873123         1.355832
