19
Iteration:  1967charge 0 multiplicity 1
 O         0.223928        -0.432260         0.449408
 C        -0.675909         0.605893         0.739562
 C        -0.400856         1.812995         1.657476
 C        -1.989042         2.042485         1.175196
 C        -2.157928         3.470862         0.614852
 C        -1.232102         3.010224        -0.560480
 C        -1.595401         1.513835        -0.201399
 O        -2.678255         1.032221         1.946301
 C        -1.870384        -0.077926         1.492151
 H         1.091975        -0.180139         0.394191
 H         0.008911         1.539187         2.650848
 H         0.221948         2.570004         1.078533
 H        -3.184883         3.682364         0.183619
 H        -1.705318         4.255241         1.310937
 H        -1.479745         3.375176        -1.528792
 H        -0.119096         3.343724        -0.465978
 H        -2.410445         1.034143        -0.711705
 H        -1.627690        -0.734194         2.316982
 H        -2.491980        -0.764454         0.798224
