19
Iteration:  3717charge 0 multiplicity 1
 O         0.268923        -0.465775         0.348177
 C        -0.696223         0.541705         0.744610
 C        -0.315050         1.755449         1.647878
 C        -1.893395         2.118864         1.171235
 C        -2.305817         3.382923         0.555583
 C        -1.325211         2.963638        -0.565735
 C        -1.559095         1.489554        -0.182556
 O        -2.629177         1.158708         1.954967
 C        -1.921534         0.002967         1.631210
 H         1.127095        -0.009998         0.715509
 H        -0.081268         1.394236         2.689578
 H         0.608113         2.297074         1.279314
 H        -3.365073         3.433841         0.131284
 H        -1.835219         4.290006         1.094287
 H        -1.749446         3.247378        -1.587241
 H        -0.393498         3.560745        -0.589245
 H        -2.305455         1.119837        -0.846391
 H        -1.514783        -0.537849         2.555776
 H        -2.551542        -0.681116         1.042014
