19
Iteration:   837charge 0 multiplicity 1
 O         0.228019        -0.362582         0.245600
 C        -0.658443         0.570980         0.769732
 C        -0.380585         1.817619         1.711449
 C        -1.885129         2.073574         1.278625
 C        -2.242775         3.458369         0.595811
 C        -1.286035         2.924642        -0.627933
 C        -1.531388         1.470266        -0.154340
 O        -2.719348         1.128523         1.973508
 C        -1.858327        -0.125626         1.537312
 H         0.620561        -0.813439         1.064404
 H        -0.119410         1.807670         2.742846
 H         0.359885         2.544908         1.130110
 H        -3.269347         3.631013         0.370062
 H        -1.883110         4.348225         1.200797
 H        -1.489906         3.239984        -1.706357
 H        -0.247740         3.346625        -0.652117
 H        -2.188770         0.894322        -0.948510
 H        -1.383676        -0.503054         2.410655
 H        -2.448133        -0.763150         0.914886
