19
Iteration:   598charge 0 multiplicity 1
 O         0.277600        -0.354828         0.291893
 C        -0.641606         0.595781         0.774766
 C        -0.443342         1.703163         1.701025
 C        -1.843817         2.066319         1.233582
 C        -2.202231         3.454207         0.589547
 C        -1.363122         2.966611        -0.678828
 C        -1.510681         1.443666        -0.167846
 O        -2.687786         1.139668         1.921882
 C        -1.875801         0.021517         1.586614
 H         0.704257        -0.839855         1.100040
 H        -0.416178         1.411109         2.770270
 H         0.433368         2.315799         1.492923
 H        -3.281330         3.561824         0.464201
 H        -1.726816         4.322013         1.112252
 H        -1.856042         3.261134        -1.656980
 H        -0.355474         3.270189        -0.828207
 H        -2.337203         0.855617        -0.532146
 H        -1.601930        -0.685417         2.511597
 H        -2.448445        -0.771437         1.032975
