19
Iteration:  2618
 O         0.278667        -0.395419         0.383110
 C        -0.650522         0.555778         0.789850
 C        -0.419515         1.700171         1.776129
 C        -1.843863         2.043915         1.238834
 C        -2.214097         3.471723         0.563940
 C        -1.272047         3.012020        -0.610372
 C        -1.499322         1.508299        -0.178698
 O        -2.724933         1.144381         1.887447
 C        -1.941706        -0.086815         1.505659
 H         0.761795        -0.030687        -0.394797
 H        -0.336205         1.391395         2.887302
 H         0.362029         2.339622         1.511335
 H        -3.197615         3.496607         0.287987
 H        -1.797562         4.359297         1.148644
 H        -1.843505         3.062506        -1.556924
 H        -0.328504         3.607043        -0.446288
 H        -2.230390         0.918840        -0.857733
 H        -1.611880        -0.554781         2.418398
 H        -2.562262        -0.769166         1.013823
