19
Iteration:   626charge 0 multiplicity 1
 O         0.325432        -0.350388         0.235995
 C        -0.646394         0.539656         0.800618
 C        -0.394758         1.785021         1.688444
 C        -1.830044         2.095805         1.257360
 C        -2.162756         3.446359         0.611669
 C        -1.369244         2.949296        -0.605259
 C        -1.477106         1.422872        -0.180662
 O        -2.759412         1.171418         1.871702
 C        -1.953565        -0.085295         1.641026
 H         0.751734        -0.782310         1.041864
 H        -0.321312         1.522320         2.807254
 H         0.364984         2.481701         1.341490
 H        -3.262533         3.600289         0.450708
 H        -1.770536         4.334867         1.060210
 H        -1.944722         3.134041        -1.472567
 H        -0.359884         3.329192        -1.016780
 H        -2.372490         0.855118        -0.597672
 H        -1.637994        -0.500457         2.576658
 H        -2.512221        -0.685811         0.882174
