19
Iteration:  2572
 O         0.281554        -0.526807         0.481843
 C        -0.726983         0.512035         0.728008
 C        -0.418641         1.786873         1.621511
 C        -1.922433         2.104803         1.151158
 C        -2.186803         3.532544         0.641741
 C        -1.298213         3.140727        -0.600438
 C        -1.481096         1.549804        -0.213669
 O        -2.701189         0.978279         1.937852
 C        -1.889666        -0.065159         1.485638
 H         1.084625        -0.171860         0.696226
 H        -0.221065         1.646013         2.705469
 H         0.384571         2.457448         1.197175
 H        -3.157226         3.768970         0.231533
 H        -1.728040         4.246823         1.345717
 H        -1.928074         3.311249        -1.565972
 H        -0.268215         3.325465        -0.407925
 H        -2.354101         1.073504        -0.714313
 H        -1.556901        -0.632366         2.431093
 H        -2.476183        -0.730898         0.959345
