19
Iteration:   821
 O         0.193346        -0.375351         0.210528
 C        -0.673563         0.586266         0.799209
 C        -0.405263         1.753094         1.762660
 C        -1.899961         2.108484         1.232466
 C        -2.180482         3.473790         0.537596
 C        -1.356678         3.010947        -0.671007
 C        -1.415284         1.498038        -0.123682
 O        -2.652962         1.045251         1.945230
 C        -1.879831        -0.034796         1.626228
 H         0.882976        -0.814118         0.873573
 H        -0.322469         1.408347         2.848172
 H         0.334449         2.408024         1.504917
 H        -3.241009         3.358971         0.137057
 H        -1.972739         4.431580         0.961550
 H        -1.992336         3.014643        -1.506895
 H        -0.334161         3.458963        -0.738790
 H        -2.264945         0.973903        -0.653785
 H        -1.584123        -0.655420         2.515676
 H        -2.435440        -0.781996         0.961527
