19
Iteration:  4235
 O         0.353074        -0.308752         0.426722
 C        -0.677326         0.482497         0.781459
 C        -0.316697         1.776526         1.600064
 C        -1.849193         2.100038         1.214515
 C        -2.236891         3.393661         0.567913
 C        -1.335270         2.924620        -0.678195
 C        -1.533230         1.501347        -0.179660
 O        -2.683505         1.159227         1.952370
 C        -1.958128        -0.040119         1.658961
 H        -0.157285        -1.041519        -0.159385
 H        -0.008499         1.588574         2.700022
 H         0.318351         2.465164         1.014417
 H        -3.444254         3.405351         0.278602
 H        -1.932995         4.256955         1.168243
 H        -1.804358         3.168000        -1.624548
 H        -0.311929         3.451494        -0.614573
 H        -2.407533         1.092101        -0.637936
 H        -1.540471        -0.663445         2.509574
 H        -2.551392        -0.720663         1.087817
