19
Iteration:  3058charge 0 multiplicity 1
 O         0.204764        -0.357697         0.313603
 C        -0.736966         0.563986         0.754710
 C        -0.416500         1.788064         1.696950
 C        -1.941344         2.070312         1.258790
 C        -2.140782         3.462854         0.513454
 C        -1.205253         3.015450        -0.591758
 C        -1.518610         1.464484        -0.213951
 O        -2.703057         1.084779         1.963255
 C        -1.906127        -0.132341         1.613978
 H         1.191975        -0.037809         0.427493
 H        -0.409635         1.670740         2.769498
 H         0.265353         2.488005         1.264306
 H        -3.198881         3.364182         0.115481
 H        -1.930827         4.305080         1.322942
 H        -1.284211         3.278359        -1.730310
 H        -0.241678         3.295512        -0.387455
 H        -2.214884         1.005800        -0.883807
 H        -1.428665        -0.579503         2.538224
 H        -2.414733        -0.952644         1.108902
