19
Iteration:  2508
 O         0.293752        -0.329178         0.277357
 C        -0.667755         0.537727         0.813284
 C        -0.450577         1.750601         1.802504
 C        -1.907569         2.061036         1.274734
 C        -2.154113         3.420351         0.516905
 C        -1.267287         2.980554        -0.573639
 C        -1.418010         1.506970        -0.078152
 O        -2.767913         1.130538         1.843550
 C        -1.938771        -0.119435         1.574503
 H         0.211937        -0.078512        -0.598124
 H        -0.219119         1.378630         2.823911
 H         0.374063         2.337103         1.341010
 H        -3.115563         3.673230         0.089349
 H        -1.809722         4.306531         1.196536
 H        -1.615780         3.196937        -1.692377
 H        -0.135647         3.371625        -0.410105
 H        -2.273688         0.970532        -0.715874
 H        -1.677690        -0.541248         2.551285
 H        -2.520892        -0.824059         0.884560
