19
Iteration:   779charge 0 multiplicity 1
 O         0.311730        -0.301194         0.289379
 C        -0.639874         0.574955         0.738383
 C        -0.374313         1.752892         1.548611
 C        -1.860471         2.058069         1.248525
 C        -2.183744         3.448882         0.596278
 C        -1.278705         2.934490        -0.544170
 C        -1.581831         1.454345        -0.167361
 O        -2.731061         1.121959         1.969126
 C        -1.943455        -0.046260         1.591044
 H         0.665505        -0.736596         1.063652
 H        -0.174004         1.622434         2.682340
 H         0.267596         2.459059         1.119206
 H        -3.256882         3.582326         0.252949
 H        -1.863519         4.257808         1.227861
 H        -1.769253         3.093849        -1.457345
 H        -0.192147         3.331929        -0.443796
 H        -2.374987         0.782877        -0.789920
 H        -1.738915        -0.617193         2.427230
 H        -2.520998        -0.765274         1.003041
