19
Iteration:  4240
 O         0.353736        -0.322006         0.420814
 C        -0.695639         0.524756         0.813628
 C        -0.287966         1.782598         1.598877
 C        -1.844994         2.080816         1.202675
 C        -2.276206         3.392204         0.586267
 C        -1.324877         2.933459        -0.690704
 C        -1.523652         1.475478        -0.172572
 O        -2.691755         1.199489         1.934454
 C        -1.943259        -0.075124         1.656240
 H        -0.121647        -0.847988        -0.183827
 H        -0.121245         1.642166         2.622056
 H         0.425292         2.354155         1.012384
 H        -3.263943         3.361963         0.493678
 H        -1.916245         4.226425         1.208439
 H        -1.814937         3.229471        -1.640037
 H        -0.377937         3.383669        -0.655650
 H        -2.397421         0.970950        -0.678561
 H        -1.611141        -0.659441         2.501944
 H        -2.641552        -0.797525         1.070205
