19
Iteration:   397charge 0 multiplicity 1
 O         0.246646        -0.353666         0.245513
 C        -0.677594         0.505180         0.822487
 C        -0.451770         1.764705         1.705587
 C        -1.946377         2.115372         1.243702
 C        -2.197711         3.461921         0.496253
 C        -1.307838         3.032136        -0.619897
 C        -1.481989         1.411467        -0.149137
 O        -2.672123         1.159277         2.014806
 C        -1.819096        -0.123743         1.555439
 H         0.597663        -0.988290         0.824386
 H        -0.269187         1.504829         2.707580
 H         0.365745         2.559899         1.379947
 H        -3.240788         3.698468         0.200540
 H        -1.837328         4.362735         1.012263
 H        -1.866124         2.990726        -1.544496
 H        -0.268436         3.317549        -0.658076
 H        -2.132242         0.964648        -0.798478
 H        -1.410007        -0.520547         2.555679
 H        -2.561232        -0.515089         0.863187
