19
Iteration:  3368
 O         0.384105        -0.273701         0.402453
 C        -0.626303         0.527725         0.773247
 C        -0.405483         1.710349         1.630325
 C        -1.891651         2.106952         1.190950
 C        -2.152002         3.468894         0.616799
 C        -1.264270         2.998451        -0.656995
 C        -1.554630         1.449160        -0.159825
 O        -2.760100         1.095506         1.899228
 C        -1.994164        -0.100439         1.639670
 H         0.024652        -1.046813        -0.175940
 H        -0.188468         1.458779         2.707900
 H         0.268758         2.531822         1.376912
 H        -3.190771         3.679874         0.254950
 H        -1.656908         4.206001         1.214489
 H        -1.592023         3.307093        -1.590610
 H        -0.162379         3.372552        -0.555985
 H        -2.483868         0.985827        -0.615528
 H        -1.719180        -0.585974         2.529677
 H        -2.634184        -0.720447         0.981583
