19
Iteration:   914
 O         0.214516        -0.389349         0.212976
 C        -0.664662         0.619518         0.817213
 C        -0.389892         1.876887         1.732103
 C        -1.866480         2.104485         1.217146
 C        -2.185637         3.481030         0.678894
 C        -1.337696         2.848858        -0.597712
 C        -1.502104         1.438027        -0.112689
 O        -2.722911         1.184286         1.869990
 C        -1.798743        -0.119244         1.511769
 H         0.603208        -0.763102         0.952128
 H        -0.338086         1.623829         2.754904
 H         0.489738         2.539143         1.335632
 H        -3.196076         3.409234         0.425648
 H        -1.919771         4.288343         1.390001
 H        -1.905390         2.982719        -1.602996
 H        -0.278380         2.968957        -0.749945
 H        -2.472754         0.881495        -0.641421
 H        -1.559568        -0.648739         2.355872
 H        -2.363086        -0.720867         0.846576
