19
Iteration:  3530
 O         0.292117        -0.408789         0.363475
 C        -0.712753         0.576493         0.685474
 C        -0.467629         1.756582         1.704903
 C        -1.955273         2.085313         1.186370
 C        -2.148556         3.478469         0.605339
 C        -1.289903         2.967885        -0.626473
 C        -1.539219         1.446063        -0.166772
 O        -2.665224         1.112521         1.942080
 C        -1.906865        -0.077052         1.585058
 H         1.176768         0.164958         0.371767
 H        -0.306783         1.437404         2.781396
 H         0.350981         2.416234         1.323628
 H        -3.142845         3.664553         0.233775
 H        -1.716162         4.316233         1.315057
 H        -1.625745         3.268062        -1.639058
 H        -0.125335         3.145593        -0.688503
 H        -2.375996         1.064273        -0.679905
 H        -1.474347        -0.430871         2.630977
 H        -2.571432        -0.849324         1.135032
