19
Iteration:   911
 O         0.227155        -0.389316         0.206871
 C        -0.663464         0.623986         0.827951
 C        -0.378107         1.871730         1.752740
 C        -1.891454         2.109032         1.209229
 C        -2.165959         3.502074         0.688238
 C        -1.361164         2.856311        -0.615915
 C        -1.522161         1.444915        -0.123111
 O        -2.709571         1.161278         1.868623
 C        -1.802264        -0.120117         1.503970
 H         0.604421        -0.832601         1.096755
 H        -0.269085         1.596352         2.801778
 H         0.516013         2.493869         1.325526
 H        -3.211662         3.357335         0.312522
 H        -1.914042         4.374673         1.347033
 H        -1.886109         3.031763        -1.519306
 H        -0.138593         3.062417        -0.868297
 H        -2.475027         0.772111        -0.578760
 H        -1.588527        -0.650289         2.496939
 H        -2.520923        -0.737142         0.813970
