19
Iteration:  3630charge 0 multiplicity 1
 O         0.373922        -0.245351         0.394011
 C        -0.696920         0.556160         0.754700
 C        -0.414558         1.688473         1.598845
 C        -1.864727         2.084889         1.210353
 C        -2.157499         3.434916         0.608625
 C        -1.324833         2.906113        -0.605386
 C        -1.580317         1.441757        -0.168225
 O        -2.735588         1.159522         1.934250
 C        -1.909437        -0.054674         1.627549
 H        -0.063568        -1.065388        -0.082861
 H        -0.024133         1.482595         2.599456
 H         0.293932         2.485237         1.125719
 H        -3.210779         3.491432         0.182401
 H        -1.657480         4.340782         1.112588
 H        -1.614208         3.428082        -1.561512
 H        -0.229180         3.240729        -0.566625
 H        -2.352784         0.927563        -0.728198
 H        -1.437759        -0.594376         2.511648
 H        -2.553408        -0.781272         1.204797
