19
Iteration:  1127
 O         0.280096        -0.334771         0.254779
 C        -0.700546         0.504091         0.795702
 C        -0.340170         1.739641         1.707988
 C        -1.871144         2.060742         1.213757
 C        -2.170934         3.427477         0.605395
 C        -1.359706         2.972687        -0.595397
 C        -1.563915         1.459028        -0.112706
 O        -2.707213         1.183631         1.841151
 C        -1.918207        -0.068150         1.604847
 H         0.829369        -0.637210         1.025569
 H         0.064763         1.633370         2.755448
 H         0.426369         2.338059         1.013035
 H        -3.278138         3.685671         0.226090
 H        -1.835328         4.272546         1.290472
 H        -1.796137         3.173788        -1.513603
 H        -0.170682         3.314061        -0.486089
 H        -2.397462         1.000008        -0.737801
 H        -1.502371        -0.410109         2.577915
 H        -2.432868        -0.829496         1.032959
