19
Iteration:  4849
 O         0.319582        -0.342877         0.236802
 C        -0.722616         0.543859         0.780870
 C        -0.326377         1.792065         1.598163
 C        -1.891266         2.090205         1.194417
 C        -2.148968         3.394040         0.642005
 C        -1.361595         2.838870        -0.711828
 C        -1.572883         1.426343        -0.110284
 O        -2.752076         1.203272         1.895212
 C        -1.875261        -0.020297         1.761617
 H         0.715053        -0.671204         0.979446
 H        -0.204173         1.667639         2.689844
 H         0.377000         2.536681         1.296625
 H        -3.152303         3.750935         0.303621
 H        -1.743064         4.332307         1.197174
 H        -1.864144         2.996507        -1.592595
 H        -0.379917         3.192914        -0.899900
 H        -2.362312         1.051180        -0.640193
 H        -1.316179        -0.280672         2.714316
 H        -2.382803        -0.856117         1.332957
