19
Iteration:  3910
 O         0.368250        -0.242798         0.388610
 C        -0.709874         0.510607         0.730167
 C        -0.434210         1.752888         1.589959
 C        -1.901543         2.065958         1.202774
 C        -2.105766         3.484184         0.614533
 C        -1.303638         3.002718        -0.593128
 C        -1.597139         1.398991        -0.144760
 O        -2.712103         1.121093         1.930869
 C        -1.906227        -0.104002         1.590221
 H         0.282431        -1.128292         0.613769
 H        -0.202768         1.591800         2.695389
 H         0.329597         2.260718         1.010809
 H        -3.106823         3.776297         0.173050
 H        -1.630092         4.353172         1.238484
 H        -1.893057         3.114400        -1.527166
 H        -0.188766         3.340063        -0.701454
 H        -2.451286         0.858593        -0.721191
 H        -1.573446        -0.537810         2.487762
 H        -2.577462        -0.744095         1.104614
