19
Iteration:  1742charge 0 multiplicity 1
 O         0.417778        -0.279900         0.380555
 C        -0.737193         0.478091         0.709086
 C        -0.392112         1.669583         1.661346
 C        -1.867278         2.072928         1.205171
 C        -2.172608         3.434648         0.631370
 C        -1.230292         3.038526        -0.486542
 C        -1.565511         1.497604        -0.215992
 O        -2.739576         1.131585         1.895862
 C        -2.015032        -0.067215         1.533348
 H         0.102789        -1.225108         0.076062
 H        -0.225454         1.578350         2.651757
 H         0.475116         2.312903         1.299558
 H        -3.226821         3.622066         0.316182
 H        -1.983132         4.338576         1.167592
 H        -1.533021         3.437189        -1.404334
 H        -0.147826         3.215729        -0.289827
 H        -2.435681         1.141962        -0.795952
 H        -1.558191        -0.503942         2.436453
 H        -2.571820        -0.763288         1.027889
