19
Iteration:  1843
 O         0.313051        -0.374824         0.452915
 C        -0.720146         0.558446         0.713419
 C        -0.419474         1.779680         1.667372
 C        -1.884706         2.053942         1.130285
 C        -2.198732         3.442617         0.689797
 C        -1.190013         3.005261        -0.542067
 C        -1.566477         1.473429        -0.201177
 O        -2.714269         1.126630         1.925793
 C        -1.930848        -0.074170         1.497311
 H         0.307045        -0.521555        -0.444156
 H        -0.337893         1.588068         2.775477
 H         0.486870         2.241139         1.287358
 H        -3.205644         3.414304         0.306343
 H        -1.807665         4.204640         1.449957
 H        -1.512888         3.233395        -1.629395
 H        -0.211219         3.357283        -0.348411
 H        -2.406017         1.104817        -0.791496
 H        -1.459100        -0.614493         2.379541
 H        -2.526581        -0.638557         0.863658
