19
Iteration:  1382
 O         0.297287        -0.348418         0.252172
 C        -0.663433         0.508441         0.783917
 C        -0.369885         1.732357         1.671331
 C        -1.850913         2.104256         1.223363
 C        -2.216181         3.465904         0.648097
 C        -1.300478         3.031904        -0.592652
 C        -1.501486         1.401129        -0.241178
 O        -2.700737         1.136802         1.929974
 C        -1.968105        -0.065151         1.648557
 H         0.548214        -0.901812         1.021555
 H        -0.303675         1.776303         2.845704
 H         0.365950         2.311111         1.051612
 H        -3.289708         3.537355         0.218876
 H        -1.910184         4.475221         1.132988
 H        -1.667148         3.313629        -1.673772
 H        -0.333952         3.424948        -0.597493
 H        -2.232735         0.900847        -0.845950
 H        -1.594171        -0.672571         2.493057
 H        -2.695916        -0.657284         1.100131
