19
Iteration:  4503
 O         0.279450        -0.418802         0.320524
 C        -0.717914         0.549631         0.748046
 C        -0.359220         1.745647         1.517484
 C        -1.889319         2.102651         1.189519
 C        -2.228690         3.403703         0.577262
 C        -1.356580         2.909400        -0.575696
 C        -1.545204         1.444234        -0.180442
 O        -2.671586         1.201212         1.953768
 C        -1.871736        -0.011545         1.751489
 H         1.068144        -0.364926         1.051583
 H        -0.123586         1.594945         2.564325
 H         0.362348         2.505854         1.229493
 H        -3.202402         3.529300         0.073511
 H        -1.974366         4.502129         1.141140
 H        -1.834760         3.326390        -1.420748
 H        -0.278576         3.142704        -0.876825
 H        -2.400925         0.956246        -0.753186
 H        -1.261375        -0.420916         2.483320
 H        -2.477464        -0.750678         1.147154
