19
Iteration:  3725charge 0 multiplicity 1
 O         0.282625        -0.432348         0.354712
 C        -0.692096         0.549515         0.741306
 C        -0.251372         1.665348         1.580863
 C        -1.942290         2.065654         1.157551
 C        -2.301134         3.423860         0.565422
 C        -1.325836         3.024100        -0.604888
 C        -1.490859         1.483639        -0.210343
 O        -2.673951         1.188759         1.998422
 C        -1.930760        -0.028885         1.664319
 H         1.162410        -0.085251         0.693537
 H        -0.375921         1.604976         2.679345
 H         0.503483         2.469078         1.284888
 H        -3.295512         3.502842         0.265653
 H        -2.053534         4.339571         1.270822
 H        -1.760194         3.112691        -1.590470
 H        -0.250558         3.466817        -0.533075
 H        -2.273987         0.933301        -0.762217
 H        -1.471203        -0.598997         2.524016
 H        -2.729695        -0.782110         1.145772
