19
Iteration:  1269
 O         0.315173        -0.355686         0.354256
 C        -0.758952         0.565589         0.754440
 C        -0.448323         1.796857         1.622076
 C        -1.893843         2.108684         1.242166
 C        -2.149878         3.539026         0.605377
 C        -1.275980         2.966039        -0.659305
 C        -1.543409         1.493132        -0.187075
 O        -2.682461         1.005608         1.980759
 C        -1.923236        -0.095269         1.564113
 H         0.804587        -0.939371         1.049401
 H         0.027599         1.638919         2.667316
 H         0.258351         2.381095         0.994216
 H        -3.198478         3.756000         0.336202
 H        -1.804453         4.361238         1.177732
 H        -1.668390         3.174918        -1.584771
 H        -0.185519         3.361748        -0.527257
 H        -2.295546         0.959905        -0.844579
 H        -1.533255        -0.655812         2.470646
 H        -2.624855        -0.659266         0.960207
