19
Iteration:  2623charge 0 multiplicity 1
 O         0.294564        -0.389004         0.373295
 C        -0.678098         0.527559         0.762680
 C        -0.451602         1.688590         1.791021
 C        -1.863405         2.098090         1.220239
 C        -2.179336         3.471782         0.559706
 C        -1.273816         3.017224        -0.610508
 C        -1.495708         1.523116        -0.140537
 O        -2.724622         1.130516         1.906520
 C        -1.903834        -0.117908         1.530216
 H         0.671780        -0.075159        -0.443337
 H        -0.353099         1.407371         2.792113
 H         0.373130         2.427545         1.474933
 H        -3.298682         3.559202         0.187862
 H        -1.958505         4.360864         1.102591
 H        -1.703797         3.080113        -1.614685
 H        -0.293361         3.468619        -0.548596
 H        -2.130884         1.018627        -0.810903
 H        -1.639649        -0.617603         2.513333
 H        -2.652001        -0.730704         0.884076
