19
Iteration:  3743charge 0 multiplicity 1
 O         0.278333        -0.425592         0.333400
 C        -0.669139         0.509297         0.765718
 C        -0.472902         1.785320         1.615145
 C        -1.879955         2.066857         1.178542
 C        -2.198413         3.437243         0.644227
 C        -1.318592         3.019177        -0.638180
 C        -1.535440         1.409935        -0.228008
 O        -2.690020         1.201553         2.000797
 C        -1.878921        -0.072395         1.642773
 H         1.163585        -0.086753         0.712323
 H         0.011847         1.597071         2.537622
 H         0.235510         2.361876         1.078820
 H        -3.255622         3.338971         0.252518
 H        -1.927074         4.290108         1.151909
 H        -1.671870         3.381028        -1.586457
 H        -0.321624         3.406121        -0.610076
 H        -2.207962         0.937258        -0.996320
 H        -1.566644        -0.456256         2.568016
 H        -2.455088        -0.785589         1.145897
