19
Iteration:  1771
 O         0.321849        -0.308698         0.414606
 C        -0.743942         0.522965         0.748828
 C        -0.471138         1.766280         1.648250
 C        -1.924654         2.074637         1.210189
 C        -2.136549         3.489572         0.638117
 C        -1.193446         3.003151        -0.565403
 C        -1.508031         1.498261        -0.187693
 O        -2.704950         1.052612         1.981039
 C        -1.930371        -0.098424         1.430901
 H         0.058075        -1.091646        -0.032085
 H        -0.314039         1.811182         2.837009
 H         0.337213         2.444559         1.306809
 H        -3.185143         3.748350         0.262074
 H        -1.682689         4.270977         1.283561
 H        -1.656731         3.304323        -1.542688
 H        -0.105861         3.215152        -0.408709
 H        -2.392353         1.170676        -0.824109
 H        -1.508485        -0.688989         2.248924
 H        -2.537655        -0.895663         0.827613
