19
Iteration:  2064
 O         0.317854        -0.420306         0.458062
 C        -0.756917         0.537897         0.752638
 C        -0.508001         1.757524         1.639908
 C        -1.949437         2.071840         1.106401
 C        -2.167152         3.485188         0.656051
 C        -1.203245         3.051527        -0.526167
 C        -1.538139         1.471246        -0.250934
 O        -2.685168         1.087067         2.004709
 C        -1.866603        -0.078952         1.501283
 H         0.533900        -0.120149        -0.363866
 H        -0.486730         1.644009         2.728898
 H         0.314219         2.290246         1.046807
 H        -3.183526         3.699611         0.235066
 H        -1.765858         4.348367         1.367332
 H        -1.390944         3.423023        -1.510602
 H        -0.064861         3.274728        -0.539894
 H        -2.302678         1.019360        -0.851940
 H        -1.511688        -0.761388         2.358794
 H        -2.410574        -0.778792         0.946715
