19
Iteration:  1008charge 0 multiplicity 1
 O         0.230977        -0.371451         0.230526
 C        -0.660382         0.513437         0.811174
 C        -0.479183         1.801225         1.745041
 C        -1.866651         2.090958         1.242087
 C        -2.130712         3.441792         0.614754
 C        -1.414499         2.938188        -0.665835
 C        -1.439004         1.522168        -0.092632
 O        -2.674641         1.115601         1.917740
 C        -1.879560        -0.019957         1.527929
 H         0.809353        -0.934819         0.895226
 H        -0.188710         1.798404         2.797910
 H         0.239392         2.493390         1.151794
 H        -3.195604         3.739535         0.307838
 H        -1.544984         4.155176         1.252699
 H        -2.028828         2.836277        -1.507646
 H        -0.353778         3.454137        -0.920628
 H        -2.061889         0.858424        -0.575754
 H        -1.642353        -0.676433         2.449852
 H        -2.513418        -0.812730         0.943656
