19
Iteration:   766
 O         0.314624        -0.290745         0.330472
 C        -0.776548         0.508341         0.734093
 C        -0.408391         1.838453         1.554056
 C        -1.972353         2.057794         1.173862
 C        -2.146244         3.424100         0.654634
 C        -1.229369         3.005512        -0.634274
 C        -1.556118         1.459700        -0.128411
 O        -2.677592         1.124598         2.018382
 C        -1.897544        -0.187371         1.578233
 H         0.649481        -0.848965         1.131079
 H        -0.147876         1.739958         2.633326
 H         0.273308         2.463418         1.070963
 H        -3.224117         3.633878         0.391796
 H        -1.801712         4.280567         1.189820
 H        -1.508649         3.210508        -1.609687
 H        -0.190973         3.331405        -0.702167
 H        -2.371658         1.180622        -0.873921
 H        -1.502225        -0.621203         2.453961
 H        -2.548191        -0.722536         0.908657
