19
Iteration:  3553charge 0 multiplicity 1
 O         0.287776        -0.411922         0.313051
 C        -0.680945         0.537497         0.833689
 C        -0.370589         1.728855         1.594828
 C        -1.876854         2.092579         1.221166
 C        -2.197296         3.413305         0.613189
 C        -1.332878         3.028128        -0.579722
 C        -1.539896         1.501463        -0.210419
 O        -2.708896         1.157095         1.884172
 C        -1.909969        -0.080157         1.640091
 H         1.030102        -0.400307         0.830341
 H        -0.361798         1.702741         2.707553
 H         0.451717         2.372492         1.105059
 H        -3.241726         3.292184         0.273762
 H        -2.006925         4.404195         1.210245
 H        -1.491105         3.142704        -1.665868
 H        -0.209257         3.432467        -0.456341
 H        -2.360922         1.087980        -0.786591
 H        -1.638350        -0.611102         2.672442
 H        -2.552388        -0.740093         0.957739
