19
Iteration:  2381charge 0 multiplicity 1
 O         0.311072        -0.321449         0.318010
 C        -0.721647         0.539216         0.801155
 C        -0.486239         1.785152         1.659792
 C        -1.892225         2.086676         1.200909
 C        -2.159158         3.393704         0.630126
 C        -1.158769         3.007034        -0.562555
 C        -1.482004         1.494784        -0.112107
 O        -2.730106         1.089349         1.883538
 C        -1.912479        -0.098062         1.544077
 H        -0.143970        -0.875903        -0.415182
 H        -0.429764         1.732634         2.830457
 H         0.302657         2.435194         1.415712
 H        -3.185326         3.538375         0.339557
 H        -1.937716         4.388013         1.224708
 H        -1.559531         3.282204        -1.622607
 H        -0.100833         3.317656        -0.284575
 H        -2.318676         1.089828        -0.653219
 H        -1.654467        -0.728055         2.428611
 H        -2.528973        -0.700553         0.937388
