19
Iteration:  1702charge 0 multiplicity 1
 O         0.252703        -0.427340         0.353938
 C        -0.655319         0.569750         0.816873
 C        -0.386169         1.798454         1.778851
 C        -1.902935         2.062204         1.237622
 C        -2.128913         3.527707         0.612855
 C        -1.326566         3.049601        -0.597492
 C        -1.425396         1.514266        -0.134531
 O        -2.754375         1.016029         1.871692
 C        -1.896628        -0.072579         1.459756
 H         0.030081        -0.763545        -0.486366
 H        -0.285770         1.592037         2.928278
 H         0.419709         2.503615         1.434051
 H        -3.072358         3.615238         0.216819
 H        -1.735248         4.371224         1.244748
 H        -1.911716         3.187579        -1.535966
 H        -0.358900         3.505877        -0.691497
 H        -2.177992         1.023775        -0.678987
 H        -1.712991        -0.712946         2.396573
 H        -2.519192        -0.869341         0.841551
