19
Iteration:  3999charge 0 multiplicity 1
 O         0.348623        -0.439355         0.484700
 C        -0.671093         0.539488         0.669050
 C        -0.419341         1.693235         1.634253
 C        -1.853383         2.061694         1.185534
 C        -2.272866         3.450497         0.609544
 C        -1.342457         3.005870        -0.591445
 C        -1.550688         1.539405        -0.225575
 O        -2.641973         1.179531         1.960372
 C        -1.899023        -0.060054         1.644584
 H         0.263866        -0.715274        -0.380956
 H        -0.193625         1.530822         2.754150
 H         0.375076         2.272927         1.137975
 H        -3.307171         3.442297         0.237269
 H        -1.997862         4.504415         1.111007
 H        -1.632583         3.129080        -1.674105
 H        -0.388066         3.522697        -0.690082
 H        -2.425248         1.183863        -0.921512
 H        -1.415411        -0.498028         2.463311
 H        -2.491099        -0.711057         1.103939
