19
Iteration:  2073
 O         0.341106        -0.408864         0.423879
 C        -0.742213         0.489529         0.756636
 C        -0.490066         1.681093         1.633593
 C        -1.944958         2.068702         1.194745
 C        -2.173645         3.504414         0.629814
 C        -1.220194         3.059592        -0.564449
 C        -1.473413         1.532610        -0.234366
 O        -2.690110         1.091873         1.958216
 C        -1.956760        -0.095957         1.548959
 H         0.730413        -0.083136        -0.320625
 H        -0.185626         1.664526         2.707410
 H         0.228999         2.394099         1.199847
 H        -3.062144         3.786417         0.127557
 H        -1.992148         4.370981         1.343463
 H        -1.820139         3.245245        -1.491643
 H        -0.136715         3.348557        -0.529330
 H        -2.130002         0.991824        -0.935208
 H        -1.398257        -0.505907         2.546229
 H        -2.653683        -0.760817         1.028367
