19
Iteration:  4377charge 0 multiplicity 1
 O         0.218457        -0.394042         0.305787
 C        -0.640259         0.566081         0.796630
 C        -0.388500         1.921576         1.650632
 C        -1.875670         2.113035         1.264743
 C        -2.163132         3.455960         0.493669
 C        -1.372594         2.856105        -0.666111
 C        -1.625181         1.453419        -0.126575
 O        -2.625587         1.101458         1.990345
 C        -1.778195        -0.023418         1.595672
 H         0.272937        -1.144209         1.067091
 H        -0.299797         1.650226         2.741728
 H         0.342066         2.491514         1.045929
 H        -3.251633         3.398033         0.163010
 H        -1.910006         4.306630         0.995427
 H        -1.838406         3.160022        -1.664637
 H        -0.320234         3.230274        -0.588026
 H        -2.395051         1.012223        -0.757250
 H        -1.681145        -0.603250         2.557478
 H        -2.294766        -0.661783         0.958787
