19
Iteration:  1635charge 0 multiplicity 1
 O         0.287595        -0.407786         0.249949
 C        -0.737208         0.513629         0.736439
 C        -0.431303         1.752467         1.706271
 C        -1.933512         2.076677         1.202532
 C        -2.166464         3.489282         0.633341
 C        -1.246081         3.025801        -0.555008
 C        -1.489312         1.516477        -0.163893
 O        -2.686800         1.082197         1.932330
 C        -1.960130        -0.058334         1.569594
 H         1.092287        -0.234401         0.898899
 H        -0.305354         1.586411         2.736869
 H         0.369287         2.405267         1.136887
 H        -3.080350         3.436898         0.206686
 H        -1.939644         4.316094         1.292131
 H        -1.577869         3.235790        -1.530719
 H        -0.208321         3.347611        -0.533833
 H        -2.261113         1.155652        -0.747354
 H        -1.579368        -0.740771         2.449204
 H        -2.575731        -0.826076         0.980705
