19
Iteration:   125charge 0 multiplicity 1
 O         0.253105        -0.421464         0.255552
 C        -0.680713         0.506904         0.741721
 C        -0.389160         1.764555         1.828751
 C        -1.844343         2.114233         1.236383
 C        -2.138370         3.447670         0.515880
 C        -1.420829         2.990507        -0.711103
 C        -1.417250         1.457230        -0.143236
 O        -2.721242         1.138705         1.926173
 C        -1.907872        -0.019340         1.617255
 H         1.007989        -0.366868         0.934286
 H        -0.544599         1.535109         2.888601
 H         0.498192         2.481038         1.559258
 H        -3.226714         3.558818         0.451587
 H        -1.687572         4.278120         1.083716
 H        -2.146272         3.005383        -1.579428
 H        -0.458052         3.572638        -0.888559
 H        -2.314765         0.883056        -0.678766
 H        -1.420780        -0.517223         2.468694
 H        -2.651208        -0.781117         1.178724
