19
Iteration:  3408charge 0 multiplicity 1
 O         0.306533        -0.321690         0.394835
 C        -0.697047         0.592943         0.781305
 C        -0.416286         1.813996         1.688035
 C        -1.909283         2.023736         1.189516
 C        -2.121248         3.473562         0.635238
 C        -1.298178         2.966211        -0.645468
 C        -1.515210         1.455319        -0.186334
 O        -2.695701         1.080782         1.916931
 C        -1.909978        -0.061466         1.523868
 H        -0.129832        -1.168887         0.568743
 H        -0.395961         1.409289         2.690895
 H         0.270559         2.537915         1.311032
 H        -3.122623         3.700948         0.391651
 H        -1.802191         4.275129         1.357809
 H        -1.657518         3.097142        -1.706744
 H        -0.271502         3.375528        -0.601966
 H        -2.285219         1.029597        -0.757007
 H        -1.552804        -0.610356         2.496788
 H        -2.431656        -0.691950         0.788281
