19
Iteration:  1710
 O         0.271486        -0.406492         0.348141
 C        -0.619377         0.564670         0.808005
 C        -0.398132         1.741367         1.821088
 C        -1.867720         2.058521         1.229984
 C        -2.171116         3.488292         0.635460
 C        -1.299439         3.020898        -0.572551
 C        -1.458993         1.530861        -0.195427
 O        -2.723936         1.054399         1.855283
 C        -1.944363        -0.048279         1.492732
 H        -0.178092        -0.734898        -0.378390
 H        -0.456816         1.501618         2.779819
 H         0.363435         2.503379         1.455925
 H        -3.200094         3.611449         0.235484
 H        -1.810559         4.345296         1.196886
 H        -1.897849         3.245129        -1.386150
 H        -0.330591         3.430841        -0.884406
 H        -2.151851         1.009003        -0.815249
 H        -1.562824        -0.533635         2.455248
 H        -2.437018        -0.755570         0.822035
