19
Iteration:   247charge 0 multiplicity 1
 O         0.254473        -0.358891         0.307831
 C        -0.721980         0.579722         0.748624
 C        -0.377761         1.803611         1.677988
 C        -1.929955         2.055444         1.172548
 C        -2.177480         3.462736         0.594023
 C        -1.344150         2.924622        -0.587554
 C        -1.524061         1.461478        -0.181027
 O        -2.653150         1.147679         1.949013
 C        -1.862969        -0.084063         1.591866
 H         0.552439        -0.919337         1.097127
 H        -0.280321         1.669019         2.829479
 H         0.409537         2.502608         1.356181
 H        -3.175330         3.758210         0.218608
 H        -1.685214         4.269207         1.122944
 H        -1.628950         3.197157        -1.574876
 H        -0.220705         3.287228        -0.606971
 H        -2.309726         0.883483        -0.857636
 H        -1.505709        -0.654957         2.408894
 H        -2.536294        -0.785746         1.056349
