19
Iteration:  4344charge 0 multiplicity 1
 O         0.317760        -0.287821         0.247699
 C        -0.668274         0.524850         0.752951
 C        -0.413591         1.779567         1.638245
 C        -1.861643         2.072331         1.235082
 C        -2.181683         3.402090         0.531093
 C        -1.379289         2.888625        -0.664742
 C        -1.533961         1.409625        -0.216078
 O        -2.639732         1.200824         2.030805
 C        -1.965547        -0.014973         1.733664
 H         0.674143        -0.941577         0.914653
 H        -0.128728         1.538292         2.730155
 H         0.552948         2.240976         1.380897
 H        -3.280816         3.487223         0.211684
 H        -1.987252         4.325051         0.980416
 H        -1.827713         2.954667        -1.679968
 H        -0.371846         3.442814        -0.721622
 H        -2.234437         0.918741        -0.890680
 H        -1.704809        -0.418859         2.734846
 H        -2.507233        -0.626811         1.120422
