19
Iteration:  2219
 O         0.194306        -0.436136         0.317307
 C        -0.661490         0.558448         0.786558
 C        -0.527036         1.790917         1.842491
 C        -1.876198         2.115090         1.254020
 C        -2.160593         3.491629         0.608419
 C        -1.284877         2.949592        -0.634437
 C        -1.447441         1.452146        -0.162358
 O        -2.664598         1.097119         1.879141
 C        -1.871253        -0.062897         1.475564
 H         0.737117         0.030540        -0.475513
 H        -0.445590         1.820099         2.934822
 H         0.296155         2.420634         1.601911
 H        -3.260047         3.764615         0.425850
 H        -1.777832         4.244014         1.294430
 H        -1.738670         3.095954        -1.613159
 H        -0.267140         3.255414        -0.483447
 H        -2.062258         0.957026        -0.866703
 H        -1.495454        -0.712391         2.454620
 H        -2.534197        -0.729165         0.903426
