19
Iteration:  2524charge 0 multiplicity 1
 O         0.315196        -0.342596         0.278496
 C        -0.657004         0.561074         0.815359
 C        -0.391135         1.754238         1.741520
 C        -1.881192         2.079051         1.234280
 C        -2.184881         3.466082         0.641598
 C        -1.190879         2.922984        -0.589230
 C        -1.490878         1.429037        -0.143526
 O        -2.794014         1.131509         1.860690
 C        -2.007626        -0.073180         1.563306
 H         0.834226         0.056361        -0.489129
 H        -0.308074         1.701655         2.831094
 H         0.265278         2.551263         1.404997
 H        -3.279554         3.379756         0.460503
 H        -1.870865         4.382068         1.100571
 H        -1.576067         3.091799        -1.526353
 H        -0.223601         3.250250        -0.367615
 H        -2.245830         0.986213        -0.742782
 H        -1.740918        -0.675618         2.478808
 H        -2.568586        -0.753079         0.826285
