19
Iteration:  4277
 O         0.281232        -0.506981         0.410797
 C        -0.698884         0.644428         0.757075
 C        -0.435384         1.829581         1.645554
 C        -1.914618         2.085582         1.225996
 C        -2.192909         3.428181         0.580005
 C        -1.346980         2.945578        -0.754243
 C        -1.534875         1.507746        -0.179050
 O        -2.648489         1.120279         2.012623
 C        -1.852560        -0.081267         1.636535
 H         0.937674        -0.189471        -0.256864
 H        -0.265736         1.635775         2.784125
 H         0.348678         2.553580         1.297165
 H        -3.327521         3.692306         0.400948
 H        -1.759403         4.321330         1.030733
 H        -1.828458         2.954644        -1.731340
 H        -0.236473         3.352552        -0.858491
 H        -2.388292         1.017555        -0.727345
 H        -1.433923        -0.472751         2.596287
 H        -2.474491        -0.735258         1.117150
