19
Iteration:  1677charge 0 multiplicity 1
 O         0.306761        -0.409036         0.435943
 C        -0.695909         0.538783         0.786523
 C        -0.445843         1.750712         1.657378
 C        -1.885662         2.049858         1.229767
 C        -2.151556         3.488293         0.706339
 C        -1.244756         2.976295        -0.564277
 C        -1.595214         1.534629        -0.203116
 O        -2.678067         1.078415         1.868444
 C        -1.921733        -0.066715         1.451337
 H         0.601094        -0.213796        -0.513787
 H        -0.276723         1.689139         2.656707
 H         0.380292         2.488794         1.310037
 H        -3.189777         3.740154         0.333724
 H        -1.763825         4.333030         1.304930
 H        -1.712097         3.288304        -1.445078
 H        -0.175623         3.254718        -0.500328
 H        -2.428614         1.130277        -0.738379
 H        -1.696628        -0.624202         2.435560
 H        -2.525229        -0.798053         0.886224
