19
Iteration:  2639charge 0 multiplicity 1
 O         0.328228        -0.365182         0.335430
 C        -0.729539         0.527615         0.808522
 C        -0.529823         1.788095         1.704742
 C        -1.933009         2.097590         1.255349
 C        -2.178147         3.514448         0.560152
 C        -1.128828         2.959923        -0.617108
 C        -1.518416         1.506351        -0.138814
 O        -2.683730         1.048942         1.948398
 C        -1.923804        -0.093574         1.528780
 H         0.387019        -0.242729        -0.705278
 H        -0.545492         1.656426         2.872096
 H         0.293595         2.351942         1.412851
 H        -3.114516         3.427254         0.113344
 H        -1.950535         4.485334         1.146216
 H        -1.587347         3.332896        -1.613681
 H        -0.046137         3.177567        -0.387298
 H        -2.508195         1.103468        -0.538266
 H        -1.514215        -0.774725         2.383658
 H        -2.441522        -0.798036         0.923441
