19
Iteration:  2908
 O         0.267585        -0.362658         0.351305
 C        -0.696610         0.579774         0.746240
 C        -0.469516         1.783851         1.776127
 C        -1.896017         2.052248         1.224576
 C        -2.191791         3.464384         0.617279
 C        -1.237127         2.934829        -0.524301
 C        -1.454775         1.489324        -0.210863
 O        -2.695855         1.141797         1.874912
 C        -1.853134        -0.072885         1.520339
 H        -0.111489        -1.116472        -0.163268
 H        -0.453507         1.512010         2.890860
 H         0.262076         2.577085         1.603489
 H        -3.250809         3.602411         0.263109
 H        -2.061287         4.312802         1.171142
 H        -1.614710         3.092783        -1.589450
 H        -0.229774         3.432363        -0.526866
 H        -2.206208         0.916880        -0.906043
 H        -1.413240        -0.548003         2.362233
 H        -2.492517        -0.755171         0.847069
