19
Iteration:  3041
 O         0.234954        -0.454164         0.345444
 C        -0.673890         0.545267         0.703161
 C        -0.479115         1.772601         1.684408
 C        -1.900359         2.035324         1.155239
 C        -2.301808         3.442038         0.617451
 C        -1.190541         2.956489        -0.524615
 C        -1.460486         1.491072        -0.198629
 O        -2.683488         1.158755         1.937864
 C        -1.880747        -0.013017         1.610012
 H         1.095713        -0.052427        -0.013353
 H        -0.321833         1.471340         2.749812
 H         0.340139         2.568520         1.449891
 H        -3.322908         3.461757         0.201981
 H        -1.971643         4.307324         1.049801
 H        -1.599297         3.210199        -1.437470
 H        -0.094725         3.342709        -0.283338
 H        -2.270910         0.964221        -0.865764
 H        -1.482531        -0.420610         2.511508
 H        -2.573477        -0.622129         0.902826
