19
Iteration:  3804
 O         0.306152        -0.370124         0.361538
 C        -0.673960         0.512701         0.791088
 C        -0.428573         1.812827         1.685286
 C        -1.858383         2.088329         1.108880
 C        -2.205384         3.455344         0.643292
 C        -1.304729         2.908900        -0.669372
 C        -1.516555         1.449712        -0.173121
 O        -2.650909         1.173511         1.983956
 C        -1.973811        -0.088260         1.605254
 H         0.763487        -0.125617        -0.457610
 H        -0.219947         1.461508         2.752008
 H         0.306037         2.546874         1.323932
 H        -3.273155         3.653939         0.380105
 H        -1.891059         4.323844         1.304344
 H        -1.917964         3.021495        -1.677243
 H        -0.318987         3.373767        -0.755143
 H        -2.244650         0.862736        -0.661361
 H        -1.477491        -0.468187         2.606687
 H        -2.687895        -0.912616         1.127036
