19
Iteration:  3892charge 0 multiplicity 1
 O         0.398874        -0.328007         0.356707
 C        -0.689808         0.565427         0.783441
 C        -0.373108         1.778241         1.610132
 C        -1.892760         2.062008         1.201115
 C        -2.166846         3.425575         0.727702
 C        -1.296507         2.863692        -0.672687
 C        -1.537629         1.477733        -0.242758
 O        -2.752574         1.162708         1.933792
 C        -1.960265         0.006232         1.604178
 H         0.206044        -1.219339         0.423385
 H        -0.182544         1.498520         2.694566
 H         0.263077         2.573298         1.229786
 H        -3.203395         3.517608         0.545520
 H        -1.901991         4.292971         1.341677
 H        -2.029715         3.138516        -1.504292
 H        -0.294868         3.154237        -0.623470
 H        -2.266929         1.108107        -0.922694
 H        -1.500797        -0.535565         2.518727
 H        -2.438465        -0.756621         0.876385
