19
Iteration:  2725
 O         0.290847        -0.403200         0.544818
 C        -0.691562         0.583848         0.696897
 C        -0.364624         1.775902         1.668883
 C        -1.907710         2.050562         1.212189
 C        -2.130592         3.447190         0.719320
 C        -1.330769         3.009346        -0.582419
 C        -1.511892         1.534320        -0.197501
 O        -2.694418         1.093734         1.855953
 C        -1.881628        -0.041044         1.385962
 H         0.014457        -1.313039         0.272579
 H        -0.242992         1.430676         2.773403
 H         0.286492         2.541041         1.390526
 H        -3.237885         3.519629         0.439139
 H        -1.961724         4.440069         1.318332
 H        -1.846401         3.325137        -1.554905
 H        -0.354818         3.453871        -0.822151
 H        -2.222377         0.914483        -0.685729
 H        -1.596770        -0.796014         2.301848
 H        -2.565489        -0.615121         0.680614
