19
Iteration:  1861
 O         0.283695        -0.405329         0.441294
 C        -0.720249         0.609047         0.668984
 C        -0.524316         1.719993         1.645548
 C        -1.987195         2.057729         1.254932
 C        -2.163592         3.461737         0.595081
 C        -1.199336         2.983086        -0.499543
 C        -1.482462         1.495454        -0.279227
 O        -2.635275         1.101582         2.015876
 C        -1.877534        -0.044658         1.493881
 H         0.300181        -0.561552        -0.447331
 H        -0.426189         1.478277         2.629095
 H         0.098554         2.680753         1.546271
 H        -3.193363         3.742495         0.190061
 H        -1.869657         4.329179         1.137174
 H        -1.543405         3.370759        -1.383515
 H        -0.100467         3.146212        -0.343354
 H        -2.084677         0.880094        -1.012087
 H        -1.541557        -0.626397         2.311535
 H        -2.572721        -0.703547         0.872686
