19
Iteration:  4514charge 0 multiplicity 1
 O         0.256333        -0.408530         0.347273
 C        -0.738717         0.528299         0.715159
 C        -0.290908         1.843464         1.574320
 C        -1.837347         2.074333         1.201402
 C        -2.247995         3.415474         0.648875
 C        -1.332405         2.909894        -0.640001
 C        -1.605196         1.422712        -0.213473
 O        -2.654182         1.172547         1.920670
 C        -1.867554         0.014359         1.685514
 H         0.906710        -0.358800         1.072580
 H        -0.131255         1.691172         2.632730
 H         0.469223         2.343339         0.989548
 H        -3.306082         3.371545         0.319343
 H        -1.997141         4.461621         1.263440
 H        -1.736586         2.957686        -1.613145
 H        -0.259733         3.261874        -0.472112
 H        -2.431657         0.923989        -0.815766
 H        -1.560170        -0.279019         2.652315
 H        -2.563982        -0.832729         1.377339
