19
Iteration:  4025
 O         0.234449        -0.400707         0.483269
 C        -0.672896         0.599329         0.770927
 C        -0.418828         1.868852         1.636990
 C        -1.907629         2.037577         1.199310
 C        -2.113937         3.441933         0.627631
 C        -1.341477         2.990353        -0.607293
 C        -1.606543         1.380532        -0.238659
 O        -2.626163         1.114844         1.979197
 C        -1.862252        -0.078327         1.546642
 H         0.509327        -0.246785        -0.367942
 H        -0.266469         1.760996         2.695841
 H         0.313352         2.501129         1.063752
 H        -3.143426         3.624625         0.314384
 H        -1.719270         4.259920         1.146575
 H        -1.789711         3.166680        -1.657871
 H        -0.313271         3.328585        -0.762355
 H        -2.301640         0.897228        -0.847730
 H        -1.590985        -0.726823         2.438862
 H        -2.364998        -0.611018         0.726945
