19
Iteration:  2366
 O         0.324022        -0.287524         0.356034
 C        -0.711965         0.550597         0.740134
 C        -0.403721         1.700158         1.692091
 C        -1.947896         2.031999         1.172138
 C        -2.243741         3.484837         0.657262
 C        -1.136620         2.946420        -0.496718
 C        -1.540456         1.465793        -0.251918
 O        -2.717463         1.153767         1.921363
 C        -1.936289        -0.067468         1.590257
 H         0.237338        -0.533568        -0.502878
 H        -0.277372         1.381521         2.697037
 H         0.376183         2.397967         1.194814
 H        -3.232244         3.442361         0.157072
 H        -1.899470         4.261685         1.415137
 H        -1.307905         3.256330        -1.480995
 H        -0.089142         3.177286        -0.180222
 H        -2.292510         0.975132        -0.997394
 H        -1.588876        -0.483487         2.501782
 H        -2.599905        -0.810901         0.885459
