19
Iteration:  1571charge 0 multiplicity 1
 O         0.388818        -0.349366         0.381992
 C        -0.737211         0.494979         0.757747
 C        -0.434773         1.691283         1.667218
 C        -1.884606         2.082650         1.147364
 C        -2.186144         3.463083         0.634699
 C        -1.323633         3.045226        -0.571073
 C        -1.524855         1.525877        -0.214701
 O        -2.703321         1.160863         1.940611
 C        -1.902552        -0.107510         1.614345
 H         0.040125        -1.039383        -0.332853
 H        -0.305093         1.455708         2.702536
 H         0.383561         2.207319         1.021750
 H        -3.203268         3.591631         0.432289
 H        -1.808659         4.360065         1.251518
 H        -1.534034         3.311435        -1.551378
 H        -0.267958         3.290472        -0.390265
 H        -2.253372         1.048621        -0.804250
 H        -1.476880        -0.619902         2.437835
 H        -2.630447        -0.664684         1.011152
