19
Iteration:  3712
 O         0.248413        -0.462412         0.357655
 C        -0.707979         0.530440         0.735343
 C        -0.376133         1.804565         1.691227
 C        -1.848212         2.097499         1.206931
 C        -2.280419         3.402372         0.553645
 C        -1.338814         2.953159        -0.591554
 C        -1.569822         1.469121        -0.152809
 O        -2.610774         1.167547         1.934052
 C        -1.874020        -0.005079         1.591523
 H         1.128660        -0.156075         0.601163
 H        -0.015549         1.415841         2.638252
 H         0.478908         2.283523         1.203353
 H        -3.297703         3.423305         0.268349
 H        -2.028498         4.371115         1.005139
 H        -1.717149         3.216086        -1.536772
 H        -0.332774         3.448581        -0.487694
 H        -2.402398         1.124274        -0.847827
 H        -1.586633        -0.426817         2.541686
 H        -2.503858        -0.743356         0.898496
