19
Iteration:   784
 O         0.324253        -0.325344         0.252611
 C        -0.657456         0.573509         0.750953
 C        -0.379187         1.757897         1.635863
 C        -1.886682         2.067871         1.247964
 C        -2.179954         3.450180         0.616765
 C        -1.323447         2.898002        -0.539191
 C        -1.550883         1.423875        -0.195860
 O        -2.710812         1.124408         1.939077
 C        -1.955224         0.006369         1.587393
 H         0.718260        -0.735289         1.121596
 H        -0.100253         1.538783         2.628242
 H         0.406879         2.457846         1.123634
 H        -3.177261         3.531572         0.260277
 H        -1.956006         4.419795         1.179543
 H        -1.748021         3.257801        -1.590209
 H        -0.329238         3.254853        -0.491001
 H        -2.314824         0.916269        -0.675279
 H        -1.593130        -0.604601         2.550965
 H        -2.544841        -0.685256         0.934894
