19
Iteration:  1455
 O         0.316673        -0.347453         0.256841
 C        -0.748212         0.452080         0.789068
 C        -0.465583         1.793563         1.578085
 C        -1.920784         2.108499         1.155542
 C        -2.158058         3.487811         0.647359
 C        -1.244186         2.997145        -0.543083
 C        -1.546568         1.434227        -0.167851
 O        -2.671466         1.147914         1.976557
 C        -1.903266        -0.098072         1.588656
 H         0.746280        -0.746823         1.123830
 H        -0.110410         1.705172         2.669705
 H         0.216014         2.312536         1.025703
 H        -3.205573         3.513643         0.222499
 H        -2.021945         4.338305         1.304941
 H        -1.607857         3.253783        -1.561651
 H        -0.103463         3.222789        -0.492843
 H        -2.321754         0.921119        -0.861743
 H        -1.464914        -0.432934         2.607628
 H        -2.627668        -0.728828         1.011153
