19
Iteration:   602charge 0 multiplicity 1
 O         0.291596        -0.360929         0.287638
 C        -0.609810         0.576139         0.751927
 C        -0.444614         1.695228         1.749677
 C        -1.868681         2.088303         1.234770
 C        -2.177529         3.423697         0.612422
 C        -1.388907         2.954276        -0.703965
 C        -1.506945         1.457237        -0.157030
 O        -2.695993         1.156228         1.914739
 C        -1.902046         0.019287         1.587297
 H         0.638279        -0.758619         1.033867
 H        -0.363289         1.417983         2.758895
 H         0.480356         2.348707         1.449445
 H        -3.254534         3.545959         0.477572
 H        -1.778155         4.281608         1.187649
 H        -1.802423         3.193068        -1.718049
 H        -0.339452         3.340782        -0.838700
 H        -2.403711         0.815421        -0.632452
 H        -1.444921        -0.484657         2.474167
 H        -2.496174        -0.723238         1.023658
