19
Iteration:  2810charge 0 multiplicity 1
 O         0.322086        -0.307150         0.280452
 C        -0.686973         0.558398         0.829409
 C        -0.479170         1.775302         1.766421
 C        -1.959335         2.071288         1.106017
 C        -2.083190         3.497620         0.627011
 C        -1.192607         2.906084        -0.533709
 C        -1.494423         1.463374        -0.100351
 O        -2.773757         1.080878         1.880374
 C        -1.874633        -0.088633         1.574879
 H        -0.015909        -0.526798        -0.634206
 H        -0.280102         1.571271         2.901905
 H         0.225052         2.451206         1.398647
 H        -3.223548         3.714797         0.306016
 H        -1.834093         4.441343         1.108991
 H        -1.793452         2.963690        -1.519979
 H        -0.209222         3.290167        -0.538937
 H        -2.213581         0.929486        -0.818115
 H        -1.664445        -0.514692         2.462894
 H        -2.531974        -0.634833         0.889785
