19
Iteration:  1638charge 0 multiplicity 1
 O         0.302650        -0.398779         0.267505
 C        -0.749997         0.487175         0.727906
 C        -0.419051         1.736722         1.695967
 C        -1.969816         2.079722         1.214648
 C        -2.149920         3.462516         0.652185
 C        -1.256073         3.010770        -0.558732
 C        -1.463447         1.537030        -0.206255
 O        -2.677416         1.094117         1.948351
 C        -1.959659        -0.055823         1.567014
 H         1.031991        -0.153100         0.768879
 H        -0.351029         1.545873         2.825507
 H         0.260028         2.327309         1.142541
 H        -3.159587         3.469798         0.211435
 H        -1.934040         4.349864         1.317733
 H        -1.498071         3.243677        -1.619591
 H        -0.239154         3.410634        -0.489213
 H        -2.321645         1.188749        -0.820999
 H        -1.624417        -0.555505         2.461352
 H        -2.571113        -0.787224         0.994310
