19
Iteration:   487
 O         0.254431        -0.345380         0.323168
 C        -0.691594         0.587809         0.742520
 C        -0.456029         1.837243         1.634247
 C        -1.903277         2.044787         1.180876
 C        -2.181635         3.464854         0.629167
 C        -1.289194         2.881953        -0.596520
 C        -1.529405         1.432088        -0.203373
 O        -2.656094         1.107067         1.977470
 C        -1.885278        -0.019346         1.550832
 H         0.729034        -0.715206         1.064189
 H        -0.282680         1.598075         2.772171
 H         0.246525         2.473973         1.296952
 H        -3.271725         3.748973         0.614433
 H        -1.635609         4.183948         1.231539
 H        -1.553014         2.985201        -1.601649
 H        -0.244732         3.285147        -0.611446
 H        -2.297169         0.944641        -0.792731
 H        -1.452829        -0.648330         2.489013
 H        -2.593821        -0.527248         0.830506
