19
Iteration:  4114charge 0 multiplicity 1
 O         0.223266        -0.431039         0.320619
 C        -0.640053         0.599996         0.770931
 C        -0.403637         1.840613         1.596472
 C        -1.913511         2.015854         1.204040
 C        -2.257858         3.450363         0.563146
 C        -1.294606         2.971069        -0.672218
 C        -1.524704         1.461043        -0.145723
 O        -2.626661         1.097140         2.067061
 C        -1.918614        -0.019420         1.591199
 H         0.846051        -0.661116         0.940888
 H        -0.126699         1.706066         2.633733
 H         0.342934         2.461900         1.174273
 H        -3.251150         3.662043         0.137517
 H        -1.970898         4.256302         1.136317
 H        -1.595252         3.095865        -1.685280
 H        -0.294785         3.503314        -0.670891
 H        -2.070429         0.863894        -0.729694
 H        -1.547997        -0.560126         2.507615
 H        -2.462848        -0.555691         0.823168
