19
Iteration:  1157
 O         0.278894        -0.369393         0.332122
 C        -0.655680         0.554532         0.734260
 C        -0.527274         1.776460         1.646715
 C        -1.977687         2.045148         1.118046
 C        -2.108018         3.458725         0.687856
 C        -1.246830         2.963350        -0.684072
 C        -1.591311         1.496935        -0.248978
 O        -2.629307         1.097713         2.072204
 C        -1.910149        -0.031363         1.559233
 H         0.712620        -0.676796         1.092385
 H        -0.286055         1.636639         2.685905
 H         0.231337         2.573413         1.333493
 H        -3.059852         3.768033         0.382961
 H        -1.844817         4.152370         1.434975
 H        -1.729255         3.225697        -1.578064
 H        -0.165239         3.144917        -0.591575
 H        -2.271678         0.829134        -0.861947
 H        -1.417339        -0.543843         2.379716
 H        -2.379593        -0.660639         0.855065
