19
Iteration:   978charge 0 multiplicity 1
 O         0.283962        -0.327512         0.295771
 C        -0.712589         0.560008         0.687952
 C        -0.381951         1.779529         1.662326
 C        -1.889035         2.082896         1.205066
 C        -2.179708         3.418978         0.595381
 C        -1.319357         2.922121        -0.531555
 C        -1.598243         1.476866        -0.197126
 O        -2.640201         1.124466         1.965383
 C        -1.936307        -0.041858         1.596450
 H         0.771499        -0.663456         0.997920
 H        -0.178075         1.583523         2.690401
 H         0.402218         2.488705         1.206106
 H        -3.181891         3.536069         0.217464
 H        -1.913699         4.269219         1.256223
 H        -1.407052         3.322882        -1.607406
 H        -0.196542         3.058815        -0.456931
 H        -2.400362         0.774760        -0.737944
 H        -1.468984        -0.518740         2.488523
 H        -2.541611        -0.714833         0.903213
