19
Iteration:   278
 O         0.322151        -0.344632         0.275535
 C        -0.751664         0.495478         0.757347
 C        -0.403442         1.717471         1.583819
 C        -1.912811         2.040557         1.189563
 C        -2.192187         3.407407         0.557287
 C        -1.270666         3.003130        -0.560968
 C        -1.538252         1.493825        -0.206640
 O        -2.706967         1.184631         2.027692
 C        -1.932217        -0.064604         1.649627
 H         0.952378        -0.543313         0.991749
 H        -0.127585         1.697039         2.684719
 H         0.547382         2.326094         1.107084
 H        -3.205209         3.508909         0.131403
 H        -1.994386         4.354927         1.068354
 H        -1.554107         3.329211        -1.551077
 H        -0.157006         3.286461        -0.320504
 H        -2.294357         0.956321        -0.893419
 H        -1.373167        -0.476469         2.489518
 H        -2.644905        -0.731022         1.159337
