19
Iteration:   361
 O         0.331102        -0.314466         0.366357
 C        -0.744687         0.577015         0.715196
 C        -0.423011         1.792179         1.587748
 C        -1.853485         2.034653         1.231533
 C        -2.162567         3.387239         0.659082
 C        -1.278885         2.922575        -0.557732
 C        -1.646159         1.392093        -0.218686
 O        -2.679157         1.227460         1.904058
 C        -1.866960        -0.058416         1.582048
 H         0.546748        -0.857726         1.073917
 H        -0.198560         1.478891         2.568340
 H         0.268770         2.560445         1.182683
 H        -3.185270         3.514793         0.347620
 H        -1.736308         4.281699         1.185786
 H        -1.667713         3.314216        -1.594351
 H        -0.313114         3.336644        -0.561232
 H        -2.479351         0.967562        -0.722312
 H        -1.429421        -0.709986         2.411927
 H        -2.543937        -0.789797         1.148227
