19
Iteration:  4185charge 0 multiplicity 1
 O         0.310225        -0.292822         0.301396
 C        -0.720184         0.563694         0.770198
 C        -0.474388         1.826475         1.613554
 C        -1.934629         2.063732         1.193872
 C        -2.125187         3.439606         0.556373
 C        -1.276283         2.920342        -0.608175
 C        -1.549624         1.381096        -0.161062
 O        -2.644256         1.109981         1.963337
 C        -1.873564        -0.040179         1.673722
 H         0.018234        -1.096516         0.587440
 H        -0.231339         1.852855         2.707886
 H         0.269159         2.578330         1.232843
 H        -3.167109         3.539279         0.462367
 H        -1.781158         4.370438         1.131053
 H        -1.803481         3.253347        -1.560303
 H        -0.284744         3.239326        -0.715827
 H        -2.291870         0.707616        -0.779490
 H        -1.389341        -0.398750         2.579914
 H        -2.560024        -0.708095         1.016701
