19
Iteration:  2424
 O         0.336001        -0.360465         0.434458
 C        -0.651294         0.537082         0.732952
 C        -0.449380         1.708218         1.745067
 C        -1.833374         2.075049         1.192728
 C        -2.125719         3.411095         0.680409
 C        -1.374795         3.048070        -0.602837
 C        -1.511433         1.510805        -0.159116
 O        -2.711229         1.127156         1.830881
 C        -1.940504        -0.036951         1.435963
 H        -0.009935        -1.360414         0.593706
 H        -0.371681         1.473662         2.892830
 H         0.409888         2.251804         1.527559
 H        -3.142231         3.670461         0.569531
 H        -1.768249         4.348951         1.258634
 H        -1.757107         3.254987        -1.648397
 H        -0.359711         3.546342        -0.684443
 H        -2.331541         1.156393        -0.782663
 H        -1.657290        -0.539282         2.353111
 H        -2.382546        -0.838912         0.731762
