19
Iteration:  3813
 O         0.342666        -0.391521         0.371441
 C        -0.722182         0.575324         0.811826
 C        -0.402341         1.745395         1.639395
 C        -1.899485         2.110049         1.164419
 C        -2.291230         3.495041         0.660446
 C        -1.308671         2.905335        -0.623836
 C        -1.507045         1.343147        -0.202180
 O        -2.618515         1.222010         1.918057
 C        -1.918194        -0.065825         1.644318
 H         0.509417        -0.164029        -0.566599
 H        -0.370089         1.670672         2.759229
 H         0.464821         2.332919         1.232504
 H        -3.275162         3.542942         0.456911
 H        -1.880523         4.270573         1.368962
 H        -1.677565         3.219518        -1.622902
 H        -0.242198         3.273172        -0.714196
 H        -2.278717         0.879752        -0.830046
 H        -1.629678        -0.662764         2.548331
 H        -2.630065        -0.684803         0.971082
