19
Iteration:  4257charge 0 multiplicity 1
 O         0.305269        -0.402453         0.424128
 C        -0.654912         0.496742         0.767308
 C        -0.379037         1.808017         1.661659
 C        -1.852068         2.098600         1.156596
 C        -2.200970         3.428401         0.643873
 C        -1.445143         2.956276        -0.604940
 C        -1.521177         1.334100        -0.190972
 O        -2.642512         1.245861         1.914900
 C        -1.882876        -0.000291         1.598578
 H         0.333355        -0.482287        -0.473438
 H        -0.299619         1.687068         2.814826
 H         0.436230         2.413445         1.198264
 H        -3.377048         3.413925         0.221676
 H        -1.950685         4.376617         1.127567
 H        -1.888129         3.012167        -1.603645
 H        -0.347017         3.301565        -0.603346
 H        -2.247454         0.758733        -0.735283
 H        -1.623817        -0.452811         2.604191
 H        -2.417133        -0.714960         1.008486
