19
Iteration:   228
 O         0.215908        -0.383578         0.285051
 C        -0.617130         0.620744         0.770053
 C        -0.418954         1.810479         1.689519
 C        -1.851688         2.094964         1.308235
 C        -2.117290         3.452994         0.616173
 C        -1.331780         2.905010        -0.700955
 C        -1.502227         1.425269        -0.108234
 O        -2.783765         1.067324         1.946002
 C        -1.851601         0.048738         1.509178
 H         0.449950        -0.959404         1.032882
 H         0.022203         1.669330         2.708179
 H         0.208475         2.518686         1.381235
 H        -3.217081         3.479348         0.452633
 H        -1.827654         4.404261         1.083661
 H        -1.832749         2.983824        -1.671307
 H        -0.334739         3.286424        -0.951505
 H        -2.276351         0.845521        -0.599105
 H        -1.623648        -0.513164         2.499903
 H        -2.214657        -0.683389         0.718561
