19
Iteration:  4058charge 0 multiplicity 1
 O         0.285533        -0.374564         0.326103
 C        -0.708701         0.562211         0.731652
 C        -0.393386         1.754226         1.737542
 C        -1.838322         2.052575         1.241453
 C        -2.138076         3.491222         0.542282
 C        -1.341425         2.961171        -0.680963
 C        -1.588761         1.401165        -0.193091
 O        -2.748648         1.162029         1.950095
 C        -1.870202        -0.060649         1.670053
 H         1.186793         0.072772         0.298766
 H        -0.201794         1.442204         2.751983
 H         0.364464         2.407366         1.215528
 H        -3.212229         3.606239         0.321331
 H        -1.741724         4.372684         0.984212
 H        -2.021687         3.027847        -1.588569
 H        -0.367933         3.451337        -0.606439
 H        -2.236352         0.806224        -0.731610
 H        -1.424242        -0.618487         2.537049
 H        -2.411525        -0.844258         1.173835
