19
Iteration:  3549
 O         0.285511        -0.405014         0.309229
 C        -0.687860         0.489219         0.839375
 C        -0.361188         1.742506         1.615991
 C        -1.838413         2.083307         1.216427
 C        -2.180844         3.418013         0.594995
 C        -1.304231         3.042383        -0.591627
 C        -1.584185         1.488504        -0.235996
 O        -2.743032         1.154246         1.902806
 C        -1.901433        -0.081208         1.638487
 H         1.193832        -0.273676         0.835610
 H        -0.408831         1.700006         2.718968
 H         0.301309         2.414068         1.179567
 H        -3.256891         3.428632         0.384004
 H        -1.994376         4.432777         1.133354
 H        -1.539057         3.220204        -1.633169
 H        -0.326993         3.454290        -0.344484
 H        -2.365345         0.961310        -0.782360
 H        -1.542464        -0.582106         2.531482
 H        -2.463085        -0.672574         1.009307
