19
Iteration:  1685charge 0 multiplicity 1
 O         0.279117        -0.428460         0.422329
 C        -0.657868         0.530826         0.804001
 C        -0.447247         1.789659         1.672424
 C        -1.869632         2.094873         1.274531
 C        -2.181499         3.513090         0.675928
 C        -1.245359         2.990823        -0.596032
 C        -1.538732         1.564330        -0.126374
 O        -2.724594         1.069968         1.861423
 C        -1.895348        -0.141131         1.457185
 H         0.309392        -0.336189        -0.545771
 H        -0.293812         1.612646         2.765524
 H         0.108057         2.457239         1.070120
 H        -3.341957         3.747716         0.508143
 H        -1.508472         4.207252         1.167897
 H        -1.617079         3.267666        -1.637195
 H        -0.185123         3.376789        -0.667422
 H        -2.357840         1.063325        -0.793145
 H        -1.571984        -0.741654         2.270474
 H        -2.402019        -0.765485         0.754208
