19
Iteration:  1726
 O         0.323315        -0.341156         0.357707
 C        -0.702973         0.569985         0.709769
 C        -0.481274         1.679775         1.734455
 C        -1.855585         2.060888         1.200792
 C        -2.198664         3.430245         0.723025
 C        -1.280077         2.998867        -0.602806
 C        -1.448241         1.484731        -0.180853
 O        -2.715597         1.209031         1.841736
 C        -1.876371        -0.049340         1.536385
 H         0.041835        -1.062866        -0.205129
 H        -0.485615         1.242040         2.894380
 H         0.338862         2.335780         1.566890
 H        -3.261582         3.311157         0.468113
 H        -1.783529         4.238191         1.395463
 H        -1.579269         3.195894        -1.715121
 H        -0.304541         3.419331        -0.357094
 H        -2.302686         1.011805        -0.749462
 H        -1.640705        -0.634869         2.427142
 H        -2.638603        -0.766551         0.993243
