19
Iteration:   551
 O         0.269766        -0.339775         0.267737
 C        -0.665092         0.563657         0.739687
 C        -0.418367         1.791758         1.637213
 C        -1.932317         2.044147         1.193231
 C        -2.190840         3.431249         0.571861
 C        -1.263255         2.941000        -0.561360
 C        -1.549207         1.434744        -0.239134
 O        -2.684859         1.166324         2.039117
 C        -1.870755        -0.025046         1.613346
 H         0.594060        -0.865973         1.078748
 H        -0.329989         1.464527         2.751791
 H         0.302192         2.560912         1.411549
 H        -3.233629         3.376118         0.157498
 H        -1.990121         4.302743         1.161663
 H        -1.548811         3.160651        -1.539026
 H        -0.217073         3.359347        -0.519465
 H        -2.204342         1.041275        -0.912400
 H        -1.608899        -0.781639         2.417978
 H        -2.461288        -0.747834         0.982265
