19
Iteration:  4057
 O         0.285437        -0.380745         0.326903
 C        -0.706618         0.556105         0.729264
 C        -0.397182         1.769230         1.736333
 C        -1.843594         2.055346         1.246040
 C        -2.143071         3.495069         0.549958
 C        -1.336031         2.964856        -0.684334
 C        -1.583692         1.393970        -0.183225
 O        -2.744159         1.160088         1.949104
 C        -1.874943        -0.063785         1.663458
 H         1.222990         0.097184         0.268203
 H        -0.232798         1.449854         2.764420
 H         0.370344         2.401587         1.167815
 H        -3.218092         3.621043         0.327160
 H        -1.698532         4.411858         1.024353
 H        -2.036209         2.987821        -1.625677
 H        -0.366945         3.428816        -0.611281
 H        -2.267611         0.776793        -0.748735
 H        -1.456603        -0.599574         2.521341
 H        -2.377928        -0.828208         1.169467
