19
Iteration:  1488charge 0 multiplicity 1
 O         0.221160        -0.399950         0.249794
 C        -0.701153         0.568226         0.767765
 C        -0.390222         1.704350         1.737881
 C        -1.879491         2.077398         1.240410
 C        -2.152099         3.396350         0.619827
 C        -1.336512         2.997037        -0.652513
 C        -1.501383         1.470582        -0.126605
 O        -2.703922         1.166441         1.908293
 C        -1.878030         0.012827         1.551159
 H         0.981493        -0.252786         0.753145
 H        -0.019246         1.385573         2.774803
 H         0.232344         2.476305         1.479034
 H        -3.257782         3.391713         0.297699
 H        -1.954889         4.311697         1.145023
 H        -1.691937         3.109985        -1.725056
 H        -0.238810         3.263597        -0.518678
 H        -2.373295         0.951464        -0.690367
 H        -1.469996        -0.475377         2.530066
 H        -2.438656        -0.878044         1.124754
