19
Iteration:   495
 O         0.269249        -0.356771         0.289756
 C        -0.714711         0.564378         0.756430
 C        -0.371970         1.840867         1.675200
 C        -1.900729         2.063363         1.264814
 C        -2.192228         3.475192         0.623697
 C        -1.309444         2.860853        -0.648772
 C        -1.487264         1.426997        -0.166352
 O        -2.701958         1.091134         1.952529
 C        -1.917589         0.002671         1.516739
 H         0.691056        -0.649623         1.054311
 H        -0.156893         1.642617         2.714948
 H         0.310143         2.656246         1.233668
 H        -3.202794         3.860031         0.350131
 H        -1.698675         4.225559         1.251777
 H        -1.786319         3.060663        -1.591976
 H        -0.302604         3.270921        -0.494133
 H        -2.217879         0.940623        -0.697347
 H        -1.540267        -0.538837         2.508460
 H        -2.465165        -0.764098         0.888367
