19
Iteration:   162charge 0 multiplicity 1
 O         0.259966        -0.388918         0.302074
 C        -0.746116         0.589387         0.716063
 C        -0.400262         1.900173         1.578624
 C        -1.868481         2.075124         1.227190
 C        -2.157382         3.374260         0.582541
 C        -1.244725         2.920614        -0.551790
 C        -1.582431         1.414958        -0.138206
 O        -2.681025         1.116898         1.990511
 C        -1.929486        -0.037713         1.566824
 H         0.803538        -0.456876         1.061872
 H        -0.232960         1.786071         2.776068
 H         0.293568         2.514210         1.112277
 H        -3.177042         3.494283         0.153663
 H        -1.865742         4.351000         0.970164
 H        -1.442780         3.173407        -1.567436
 H        -0.167657         3.205798        -0.352357
 H        -2.400087         0.994940        -0.683438
 H        -1.368232        -0.523138         2.463080
 H        -2.580471        -0.763826         0.968602
