19
Iteration:  3176
 O         0.249103        -0.352121         0.253459
 C        -0.709951         0.553094         0.792442
 C        -0.449758         1.842305         1.697298
 C        -1.865542         2.063980         1.241800
 C        -2.264552         3.417211         0.536072
 C        -1.249821         2.957561        -0.540344
 C        -1.431332         1.465920        -0.206040
 O        -2.691763         1.124492         1.955003
 C        -1.865340        -0.026475         1.580782
 H         0.235387        -1.029050         0.913319
 H        -0.340526         1.545262         2.735144
 H         0.437801         2.243673         1.259931
 H        -3.129648         3.420235        -0.006713
 H        -2.065725         4.236835         1.234908
 H        -1.555260         3.086123        -1.701745
 H        -0.254522         3.357361        -0.533690
 H        -2.191007         1.006713        -0.774448
 H        -1.475423        -0.467809         2.600681
 H        -2.559364        -0.766551         1.071378
