19
Iteration:  3704
 O         0.206411        -0.456987         0.367919
 C        -0.691522         0.540940         0.743513
 C        -0.424176         1.813764         1.684534
 C        -1.816845         2.091600         1.263079
 C        -2.232200         3.442153         0.569780
 C        -1.347302         2.958098        -0.634908
 C        -1.555620         1.455210        -0.146816
 O        -2.617555         1.179217         1.922439
 C        -1.825862        -0.051992         1.532952
 H         1.095682        -0.236929         0.455329
 H        -0.193043         1.658850         2.774439
 H         0.266679         2.536392         1.124403
 H        -3.277201         3.287918         0.375835
 H        -2.246999         4.523530         1.031645
 H        -1.646373         3.147222        -1.671661
 H        -0.248660         3.170976        -0.410659
 H        -2.444809         0.968849        -0.540974
 H        -1.537878        -0.541583         2.512171
 H        -2.483964        -0.802645         0.919252
