19
Iteration:  3403charge 0 multiplicity 1
 O         0.302907        -0.291046         0.398104
 C        -0.668782         0.562954         0.765517
 C        -0.477803         1.773910         1.644071
 C        -1.848999         2.062936         1.209089
 C        -2.123365         3.461912         0.652598
 C        -1.288268         2.959615        -0.677669
 C        -1.495180         1.416856        -0.158785
 O        -2.727290         1.092214         1.910721
 C        -1.883462        -0.053186         1.535917
 H        -0.136641        -1.150430         0.572792
 H        -0.386504         1.418299         2.696417
 H         0.328522         2.581940         1.470549
 H        -3.202084         3.888446         0.383878
 H        -1.846792         4.266125         1.355401
 H        -1.752742         3.146425        -1.646544
 H        -0.304156         3.426993        -0.541904
 H        -2.409320         1.040986        -0.766925
 H        -1.578271        -0.647772         2.346594
 H        -2.501403        -0.739552         0.899666
