19
Iteration:  3499
 O         0.302797        -0.382400         0.400799
 C        -0.698467         0.620148         0.805756
 C        -0.432081         1.857904         1.710904
 C        -1.952916         2.075753         1.211468
 C        -2.081027         3.455539         0.616674
 C        -1.310827         2.994044        -0.643836
 C        -1.504587         1.404130        -0.203850
 O        -2.689140         1.071436         1.928528
 C        -1.955545        -0.109612         1.527418
 H         0.539036        -0.210866        -0.450554
 H        -0.264148         1.664570         2.786725
 H         0.291279         2.497069         1.113839
 H        -3.039637         3.855315         0.338076
 H        -1.773499         4.199864         1.298570
 H        -1.689886         3.112075        -1.649065
 H        -0.169135         3.109831        -0.501274
 H        -2.401768         0.847769        -0.476713
 H        -1.562532        -0.589885         2.497584
 H        -2.540387        -0.819824         0.846271
