19
Iteration:  1142charge 0 multiplicity 1
 O         0.298627        -0.343302         0.296651
 C        -0.747140         0.526275         0.734869
 C        -0.430428         1.805214         1.569027
 C        -1.893574         2.088170         1.192803
 C        -2.149146         3.512253         0.659517
 C        -1.281180         2.972857        -0.567391
 C        -1.483039         1.419465        -0.212656
 O        -2.694502         1.098035         1.975019
 C        -1.920731        -0.111631         1.629512
 H         0.861451        -0.681047         1.104341
 H        -0.390000         1.719851         2.665669
 H         0.274690         2.419657         1.128223
 H        -3.213972         3.665242         0.400447
 H        -1.651082         4.370873         1.163805
 H        -1.767139         3.181878        -1.637653
 H        -0.348762         3.431963        -0.733310
 H        -2.234074         1.035856        -0.862671
 H        -1.634033        -0.664019         2.554169
 H        -2.716465        -0.840680         1.160288
