19
Iteration:   327charge 0 multiplicity 1
 O         0.226284        -0.432002         0.244466
 C        -0.664261         0.543766         0.789422
 C        -0.457992         1.839162         1.763820
 C        -1.867581         2.114892         1.234592
 C        -2.163132         3.483909         0.545024
 C        -1.327766         2.996858        -0.707744
 C        -1.464223         1.455763        -0.144928
 O        -2.655529         1.123062         1.937851
 C        -1.907268        -0.164904         1.624700
 H         0.928121        -0.667179         0.937198
 H        -0.186882         1.732714         2.883394
 H         0.160033         2.559701         1.410104
 H        -3.217288         3.735504         0.433540
 H        -1.689897         4.359654         1.040097
 H        -2.085463         3.014948        -1.563304
 H        -0.479761         3.662348        -0.765696
 H        -2.288910         0.924964        -0.671147
 H        -1.532984        -0.644537         2.559245
 H        -2.528387        -0.705184         0.916077
