19
Iteration:   331
 O         0.242645        -0.419989         0.259491
 C        -0.654258         0.541932         0.800629
 C        -0.427845         1.817878         1.733638
 C        -1.879593         2.095197         1.227225
 C        -2.186186         3.512643         0.569102
 C        -1.329305         2.994981        -0.725774
 C        -1.462459         1.471328        -0.150884
 O        -2.666305         1.105891         1.947845
 C        -1.936207        -0.134914         1.641569
 H         0.915090        -0.742138         0.916226
 H        -0.356777         1.525525         2.722540
 H         0.264315         2.676601         1.284551
 H        -3.230931         3.807183         0.405143
 H        -1.659130         4.361210         1.058060
 H        -2.033429         2.948265        -1.514502
 H        -0.438635         3.595021        -0.745304
 H        -2.161759         0.935533        -0.714820
 H        -1.451636        -0.687423         2.525059
 H        -2.575620        -0.717681         0.957212
