19
Iteration:  2407
 O         0.303578        -0.378265         0.362906
 C        -0.662553         0.600192         0.758363
 C        -0.389802         1.675079         1.821044
 C        -1.909206         2.084298         1.247805
 C        -2.184910         3.573463         0.631474
 C        -1.287480         2.993372        -0.654014
 C        -1.450808         1.533746        -0.167128
 O        -2.755197         1.067707         1.853118
 C        -1.866673        -0.075845         1.470824
 H        -0.211795        -1.305057         0.276475
 H        -0.301355         1.408183         2.854598
 H         0.373702         2.500605         1.627886
 H        -3.292212         3.714632         0.324885
 H        -1.751005         4.370516         1.139968
 H        -1.968767         3.079043        -1.532607
 H        -0.282144         3.295284        -0.566974
 H        -2.187751         0.912191        -0.696525
 H        -1.624673        -0.737960         2.386853
 H        -2.521286        -0.607472         0.788419
