19
Iteration:  4713charge 0 multiplicity 1
 O         0.283706        -0.346779         0.297164
 C        -0.679364         0.590979         0.734992
 C        -0.432731         1.851196         1.589546
 C        -1.917577         2.055913         1.231503
 C        -2.117349         3.460511         0.580945
 C        -1.286849         2.884021        -0.668006
 C        -1.630022         1.411970        -0.202166
 O        -2.688889         1.122914         2.058931
 C        -1.885979        -0.060063         1.703596
 H         0.854617        -0.570115         0.960189
 H        -0.161581         1.712590         2.630673
 H         0.337593         2.536979         1.196794
 H        -3.123445         3.651665         0.228156
 H        -1.682467         4.407009         0.965193
 H        -1.795446         3.016371        -1.690426
 H        -0.236193         3.118756        -0.934297
 H        -2.329571         0.907010        -0.934699
 H        -1.524244        -0.540315         2.600783
 H        -2.479055        -0.724713         1.001129
