19
Iteration:  4489charge 0 multiplicity 1
 O         0.269303        -0.407524         0.297358
 C        -0.658320         0.524769         0.736863
 C        -0.450324         1.776878         1.631404
 C        -1.922642         2.059795         1.190271
 C        -2.168381         3.468537         0.534747
 C        -1.318688         2.973041        -0.702909
 C        -1.580069         1.407502        -0.165756
 O        -2.672841         1.192878         2.063807
 C        -1.819901        -0.050074         1.669267
 H         1.020619        -0.370468         0.797020
 H        -0.237431         1.619205         2.674663
 H         0.268219         2.472453         1.124727
 H        -3.277331         3.558349         0.362507
 H        -1.833906         4.291386         1.070189
 H        -1.747900         2.988795        -1.761356
 H        -0.347887         3.429717        -0.582022
 H        -2.349849         0.913511        -0.737416
 H        -1.553807        -0.369441         2.681309
 H        -2.482515        -0.758532         1.225249
