19
Iteration:  1966charge 0 multiplicity 1
 O         0.223960        -0.434531         0.449903
 C        -0.678416         0.605584         0.743419
 C        -0.400557         1.818757         1.653451
 C        -1.985762         2.048060         1.174233
 C        -2.161831         3.477114         0.615548
 C        -1.229153         3.009283        -0.559390
 C        -1.596982         1.513970        -0.204885
 O        -2.675953         1.021284         1.946800
 C        -1.879535        -0.082053         1.487011
 H         1.100924        -0.170977         0.382976
 H         0.022963         1.575404         2.687070
 H         0.229243         2.553239         1.091599
 H        -3.168429         3.684426         0.160392
 H        -1.675319         4.268289         1.334604
 H        -1.497499         3.373546        -1.559267
 H        -0.125359         3.344247        -0.450733
 H        -2.401680         1.028534        -0.722000
 H        -1.588735        -0.742613         2.344767
 H        -2.503000        -0.730539         0.836641
