19
Iteration:   900charge 0 multiplicity 1
 O         0.267038        -0.357646         0.256173
 C        -0.647936         0.575562         0.783357
 C        -0.377953         1.784020         1.760726
 C        -1.897589         2.094349         1.246401
 C        -2.140728         3.480989         0.628040
 C        -1.362887         2.933603        -0.673054
 C        -1.565555         1.467488        -0.121584
 O        -2.669522         1.079703         1.900828
 C        -1.894021        -0.055166         1.548700
 H         0.608133        -1.008357         0.968180
 H        -0.179817         1.664193         2.836038
 H         0.389074         2.516657         1.325594
 H        -3.174408         3.716674         0.283091
 H        -1.859053         4.458540         1.078733
 H        -1.957800         3.163269        -1.525834
 H        -0.288307         3.445554        -0.865652
 H        -2.386638         0.778049        -0.699555
 H        -1.606444        -0.598299         2.503879
 H        -2.480481        -0.791207         0.870159
