19
Iteration:  2762
 O         0.358845        -0.310385         0.415386
 C        -0.693750         0.455083         0.754778
 C        -0.412297         1.705597         1.658710
 C        -1.960019         2.077887         1.167018
 C        -2.246015         3.479717         0.643178
 C        -1.214235         3.038541        -0.573407
 C        -1.490327         1.474292        -0.152915
 O        -2.692779         1.148742         1.920296
 C        -1.935151        -0.113187         1.536488
 H         0.076321        -0.975247        -0.359321
 H        -0.374754         1.476251         2.666322
 H         0.536862         2.323165         1.381102
 H        -3.062690         3.711052         0.003506
 H        -1.998793         4.362036         1.249688
 H        -1.659928         3.333069        -1.487932
 H        -0.155177         3.416728        -0.362288
 H        -2.261123         1.155571        -0.952430
 H        -1.666360        -0.692840         2.517600
 H        -2.682193        -0.669486         0.935315
