19
Iteration:  3077
 O         0.270860        -0.346975         0.300980
 C        -0.691852         0.580113         0.773256
 C        -0.486221         1.757759         1.684588
 C        -1.919352         2.150198         1.192283
 C        -2.137371         3.484384         0.593638
 C        -1.215133         2.892025        -0.600112
 C        -1.565829         1.475579        -0.115517
 O        -2.710972         1.060791         1.900475
 C        -1.880374        -0.088475         1.597447
 H         1.075855        -0.010817         0.762375
 H        -0.337686         1.465193         2.733228
 H         0.257571         2.344006         1.274105
 H        -3.095251         3.631995         0.216913
 H        -1.766221         4.386688         1.082683
 H        -1.640400         3.154390        -1.624651
 H        -0.185782         3.240372        -0.733900
 H        -2.430791         1.134425        -0.589245
 H        -1.619573        -0.761084         2.442176
 H        -2.483414        -0.760597         1.065401
