19
Iteration:  1155
 O         0.282565        -0.368107         0.328271
 C        -0.653500         0.558504         0.749020
 C        -0.531372         1.783457         1.621984
 C        -1.958382         2.052193         1.116902
 C        -2.108067         3.472786         0.695484
 C        -1.237662         2.965538        -0.675438
 C        -1.575239         1.487131        -0.248187
 O        -2.637209         1.089245         2.067835
 C        -1.926193        -0.035820         1.579093
 H         0.740361        -0.684434         1.069708
 H        -0.293821         1.601581         2.649817
 H         0.170401         2.502913         1.318155
 H        -3.071390         3.725591         0.420248
 H        -1.862743         4.200070         1.439915
 H        -1.789865         3.178985        -1.681220
 H        -0.261780         3.151883        -0.589050
 H        -2.255443         0.903009        -0.880443
 H        -1.377530        -0.532324         2.383018
 H        -2.457078        -0.722698         0.825818
