19
Iteration:  2522charge 0 multiplicity 1
 O         0.313815        -0.342223         0.275350
 C        -0.654913         0.564204         0.822387
 C        -0.390280         1.755480         1.737029
 C        -1.884086         2.081580         1.239953
 C        -2.187892         3.455135         0.635696
 C        -1.206971         2.921270        -0.587788
 C        -1.474918         1.442745        -0.139269
 O        -2.798839         1.131371         1.861588
 C        -1.998743        -0.084364         1.568909
 H         0.810771         0.066125        -0.563149
 H        -0.273917         1.683886         2.876206
 H         0.249786         2.510608         1.432026
 H        -3.252583         3.409946         0.445257
 H        -1.828186         4.445920         1.076240
 H        -1.520995         3.126867        -1.577515
 H        -0.146888         3.298004        -0.378374
 H        -2.282891         0.921172        -0.755172
 H        -1.838704        -0.631398         2.475735
 H        -2.600885        -0.825634         0.818624
