19
Iteration:   549
 O         0.270342        -0.341072         0.268550
 C        -0.657447         0.582918         0.734380
 C        -0.418941         1.780936         1.668194
 C        -1.921575         2.029325         1.190229
 C        -2.193266         3.444714         0.556127
 C        -1.276026         2.943480        -0.552019
 C        -1.547154         1.435232        -0.230542
 O        -2.679805         1.178688         2.023646
 C        -1.878419        -0.047609         1.612772
 H         0.561372        -0.808608         1.012458
 H        -0.347572         1.463045         2.715576
 H         0.439707         2.548211         1.402786
 H        -3.233946         3.372407         0.194458
 H        -2.000928         4.312260         1.172446
 H        -1.634738         3.169153        -1.563534
 H        -0.203048         3.317082        -0.501522
 H        -2.221306         0.930225        -0.964353
 H        -1.591562        -0.700187         2.361520
 H        -2.519552        -0.760041         1.103913
