19
Iteration:  2128charge 0 multiplicity 1
 O         0.201315        -0.465371         0.354452
 C        -0.686496         0.580611         0.751758
 C        -0.438370         1.787119         1.709905
 C        -1.858904         2.072919         1.247640
 C        -2.195521         3.508114         0.580442
 C        -1.292517         3.035942        -0.605662
 C        -1.444432         1.535886        -0.153702
 O        -2.714419         1.047644         1.944247
 C        -1.913157        -0.085861         1.495084
 H         1.138178        -0.238390         0.366934
 H        -0.443047         1.578662         2.785802
 H         0.372807         2.568920         1.517351
 H        -3.173817         3.567494         0.242876
 H        -1.664462         4.300521         1.217186
 H        -1.770550         3.111706        -1.638425
 H        -0.207963         3.447061        -0.674180
 H        -2.276618         1.083517        -0.728514
 H        -1.427494        -0.883502         2.378495
 H        -2.409327        -0.805811         0.811000
