19
Iteration:   786charge 0 multiplicity 1
 O         0.328411        -0.335538         0.241893
 C        -0.674036         0.570209         0.751400
 C        -0.375421         1.768239         1.668043
 C        -1.900831         2.075384         1.243154
 C        -2.175660         3.450792         0.633651
 C        -1.344633         2.892533        -0.553963
 C        -1.532473         1.412089        -0.198225
 O        -2.701226         1.130254         1.928330
 C        -1.952112         0.010873         1.588503
 H         0.745000        -0.739646         1.106294
 H        -0.066891         1.509722         2.649250
 H         0.388071         2.401837         1.189690
 H        -3.203987         3.501816         0.261639
 H        -1.985130         4.426164         1.122127
 H        -1.678344         3.283902        -1.548590
 H        -0.365753         3.216453        -0.532377
 H        -2.322548         0.976068        -0.658324
 H        -1.554000        -0.546330         2.535716
 H        -2.546883        -0.638009         0.916276
