19
Iteration:   909charge 0 multiplicity 1
 O         0.237295        -0.388572         0.212674
 C        -0.660363         0.621099         0.826683
 C        -0.367864         1.865844         1.758554
 C        -1.904093         2.110483         1.209556
 C        -2.153244         3.508846         0.690417
 C        -1.361747         2.867106        -0.629367
 C        -1.545647         1.443268        -0.131900
 O        -2.699195         1.143483         1.870420
 C        -1.814784        -0.117109         1.502804
 H         0.585168        -0.849859         1.084346
 H        -0.221580         1.590342         2.856634
 H         0.451502         2.429915         1.354640
 H        -3.226821         3.378247         0.251841
 H        -1.920763         4.408778         1.278157
 H        -1.887549         3.077382        -1.499140
 H        -0.181784         3.134844        -0.907354
 H        -2.363731         0.785955        -0.505523
 H        -1.608446        -0.635618         2.555324
 H        -2.559100        -0.719158         0.833476
