19
Iteration:   354charge 0 multiplicity 1
 O         0.320108        -0.324181         0.339829
 C        -0.719245         0.557687         0.714574
 C        -0.388478         1.742612         1.652867
 C        -1.917580         2.077800         1.180469
 C        -2.131669         3.415774         0.643468
 C        -1.315033         2.931211        -0.592456
 C        -1.595581         1.401830        -0.228846
 O        -2.704838         1.199070         1.944891
 C        -1.852394        -0.038691         1.574092
 H         0.528406        -0.816603         1.198355
 H        -0.198770         1.586992         2.711659
 H         0.364878         2.378602         1.021580
 H        -3.203006         3.538365         0.374159
 H        -1.820278         4.273358         1.245223
 H        -1.895453         3.212355        -1.410938
 H        -0.291728         3.319613        -0.433024
 H        -2.401547         0.860923        -0.722063
 H        -1.437804        -0.429095         2.542549
 H        -2.465315        -0.710085         0.941658
