19
Iteration:  2121
 O         0.183305        -0.473239         0.337085
 C        -0.655900         0.634374         0.742282
 C        -0.449269         1.761317         1.761232
 C        -1.870115         2.118170         1.234723
 C        -2.177161         3.488926         0.629231
 C        -1.290319         2.974295        -0.600168
 C        -1.486650         1.513902        -0.113707
 O        -2.677097         1.086371         1.856947
 C        -1.879034        -0.107373         1.494545
 H         1.177664        -0.187913         0.409817
 H        -0.322222         1.459789         2.799163
 H         0.351125         2.509800         1.516326
 H        -3.282642         3.604425         0.350052
 H        -1.921085         4.477770         1.079523
 H        -1.853819         2.951150        -1.476709
 H        -0.279107         3.398979        -0.699477
 H        -2.198120         0.948487        -0.679989
 H        -1.647186        -0.620705         2.394803
 H        -2.443085        -0.692289         0.784641
