19
Iteration:  2527
 O         0.316047        -0.345394         0.287025
 C        -0.662477         0.554407         0.796852
 C        -0.401325         1.756677         1.746807
 C        -1.875370         2.073796         1.224241
 C        -2.180041         3.467432         0.642658
 C        -1.183914         2.919611        -0.575827
 C        -1.506296         1.420720        -0.140075
 O        -2.781988         1.131515         1.860892
 C        -2.013381        -0.061381         1.553455
 H         0.828681         0.060225        -0.338660
 H        -0.350229         1.684871         2.792624
 H         0.306715         2.589223         1.349320
 H        -3.283556         3.384740         0.439980
 H        -1.928073         4.341972         1.194595
 H        -1.675587         3.089458        -1.589083
 H        -0.199303         3.237104        -0.366818
 H        -2.263370         1.029405        -0.773706
 H        -1.621633        -0.689369         2.442156
 H        -2.503147        -0.617024         0.868452
