19
Iteration:  3230charge 0 multiplicity 1
 O         0.261014        -0.309028         0.314846
 C        -0.692793         0.595122         0.794281
 C        -0.462998         1.771961         1.665656
 C        -1.870835         2.027603         1.210424
 C        -2.098622         3.488775         0.572946
 C        -1.278200         2.949220        -0.624386
 C        -1.582195         1.410153        -0.153918
 O        -2.695574         1.112690         1.934060
 C        -1.899810        -0.088939         1.551341
 H         0.742725        -0.401907         1.130034
 H        -0.103789         1.595007         2.698996
 H         0.257831         2.506610         1.284891
 H        -3.110789         3.582703         0.368087
 H        -1.787510         4.284016         1.227754
 H        -1.707547         3.002230        -1.701758
 H        -0.290709         3.312777        -0.447808
 H        -2.322527         0.871258        -0.720549
 H        -1.517022        -0.582776         2.470342
 H        -2.601758        -0.607442         0.867602
