19
Iteration:    16
 O         0.285322        -0.368009         0.177518
 C        -0.691021         0.535179         0.874229
 C        -0.358687         1.855763         1.719266
 C        -1.782873         2.087560         1.259680
 C        -2.177108         3.377323         0.544626
 C        -1.250000         2.934025        -0.629925
 C        -1.486714         1.496006        -0.061587
 O        -2.785848         1.141441         1.859236
 C        -1.980053        -0.058029         1.654549
 H         0.716170        -1.053170         0.885937
 H         0.050718         1.988683         2.695413
 H         0.440718         2.490402         1.111528
 H        -3.183219         3.232944         0.138916
 H        -2.132106         4.348092         1.080504
 H        -1.883330         2.997005        -1.618372
 H        -0.352466         3.437930        -0.995663
 H        -2.574096         1.167708        -0.457449
 H        -1.757044        -0.613408         2.624707
 H        -2.613956        -0.834849         0.974621
