19
Iteration:  2612charge 0 multiplicity 1
 O         0.256369        -0.418355         0.400967
 C        -0.651643         0.594265         0.797646
 C        -0.378424         1.710200         1.765603
 C        -1.862239         2.022148         1.242578
 C        -2.203768         3.438375         0.627372
 C        -1.307391         2.997737        -0.594372
 C        -1.455749         1.451907        -0.222438
 O        -2.715258         1.146911         1.848831
 C        -1.983415        -0.008458         1.492340
 H         0.962401         0.078165        -0.252733
 H        -0.367026         1.497816         2.774401
 H         0.509993         2.410230         1.469660
 H        -3.403928         3.485732         0.440066
 H        -1.803509         4.277182         1.120778
 H        -1.764657         3.279317        -1.557218
 H        -0.363313         3.547791        -0.603569
 H        -2.286229         1.018381        -0.695533
 H        -1.533152        -0.549485         2.443450
 H        -2.515760        -0.913444         0.923265
