19
Iteration:  4002charge 0 multiplicity 1
 O         0.334286        -0.432068         0.504924
 C        -0.677041         0.540853         0.665414
 C        -0.414129         1.704730         1.624378
 C        -1.858921         2.075772         1.193408
 C        -2.275590         3.465503         0.622325
 C        -1.331411         2.969161        -0.616980
 C        -1.526073         1.547641        -0.234606
 O        -2.647899         1.157396         1.982739
 C        -1.910879        -0.043557         1.624370
 H         0.314694        -0.712507        -0.511448
 H        -0.248337         1.452324         2.692609
 H         0.362005         2.364255         1.107935
 H        -3.302484         3.483186         0.292145
 H        -1.970683         4.390168         1.135386
 H        -1.698909         3.204121        -1.745715
 H        -0.383791         3.505193        -0.631565
 H        -2.320776         1.146631        -0.836345
 H        -1.269418        -0.513174         2.420821
 H        -2.549238        -0.779894         1.108733
