19
Iteration:  3642charge 0 multiplicity 1
 O         0.383156        -0.285205         0.403547
 C        -0.719771         0.534238         0.703160
 C        -0.346459         1.745197         1.655147
 C        -1.938281         2.013809         1.191537
 C        -2.126347         3.418948         0.624153
 C        -1.265349         2.983799        -0.629687
 C        -1.644116         1.401518        -0.191546
 O        -2.675811         1.156561         1.910145
 C        -1.941716        -0.024681         1.657780
 H         0.242105        -0.775681        -0.337005
 H        -0.206580         1.603538         2.732411
 H         0.296502         2.567479         1.190691
 H        -3.251204         3.690570         0.389332
 H        -1.949940         4.272082         1.330603
 H        -1.760778         3.013028        -1.660256
 H        -0.174370         3.173052        -0.591280
 H        -2.592430         0.986263        -0.640317
 H        -1.577668        -0.309513         2.685887
 H        -2.568317        -0.766880         1.118277
