19
Iteration:  2112
 O         0.181712        -0.438289         0.320115
 C        -0.623523         0.544741         0.806337
 C        -0.394427         1.743693         1.825940
 C        -1.895271         2.104022         1.251709
 C        -2.159934         3.475231         0.662585
 C        -1.340891         2.907273        -0.600736
 C        -1.512962         1.483061        -0.127209
 O        -2.679355         1.149364         1.774570
 C        -1.849525        -0.014829         1.473949
 H         1.182314        -0.058001         0.331961
 H        -0.311635         1.436077         2.886521
 H         0.298476         2.416413         1.404697
 H        -3.298789         3.422690         0.362988
 H        -1.990285         4.351871         1.229573
 H        -1.772814         3.275227        -1.579465
 H        -0.385502         3.309518        -0.721195
 H        -2.319543         0.983610        -0.734523
 H        -1.661826        -0.447534         2.312602
 H        -2.478060        -0.721791         0.840845
