19
Iteration:  2251
 O         0.283609        -0.399661         0.421696
 C        -0.718616         0.497001         0.675576
 C        -0.369910         1.723708         1.607910
 C        -1.918914         2.104113         1.252728
 C        -2.219287         3.447732         0.636306
 C        -1.177352         3.006728        -0.529499
 C        -1.567603         1.527053        -0.191193
 O        -2.730695         1.096054         1.927705
 C        -1.931976        -0.063604         1.515866
 H         0.993730         0.123728         0.199095
 H        -0.183163         1.638177         2.685975
 H         0.286464         2.312009         1.037603
 H        -3.194671         3.414085         0.163743
 H        -2.006242         4.226439         1.339655
 H        -1.392705         3.371549        -1.555398
 H        -0.108215         3.305984        -0.422645
 H        -2.266150         1.084036        -0.848019
 H        -1.506101        -0.568590         2.531419
 H        -2.648262        -0.700791         1.030678
