19
Iteration:  4963charge 0 multiplicity 1
 O         0.265686        -0.438022         0.317662
 C        -0.693087         0.606051         0.750227
 C        -0.361126         1.808796         1.634245
 C        -1.852484         2.060730         1.169578
 C        -2.232498         3.487639         0.568365
 C        -1.340595         2.935519        -0.683039
 C        -1.559651         1.414384        -0.221662
 O        -2.653694         1.157842         1.957488
 C        -1.843007        -0.046787         1.741451
 H         0.294559        -0.961379         1.187610
 H        -0.271057         1.634458         2.717409
 H         0.306769         2.610038         1.325882
 H        -3.237830         3.807528         0.243837
 H        -1.821187         4.344584         1.093425
 H        -1.767856         3.233133        -1.693630
 H        -0.374892         3.454250        -0.815197
 H        -2.459749         0.799211        -0.621420
 H        -1.419473        -0.422621         2.628776
 H        -2.465101        -0.945681         1.375678
