19
Iteration:  4356charge 0 multiplicity 1
 O         0.283586        -0.310215         0.265533
 C        -0.715943         0.552054         0.780765
 C        -0.355447         1.791237         1.674114
 C        -1.846828         2.121795         1.183712
 C        -2.254510         3.457011         0.536960
 C        -1.337984         2.856837        -0.726437
 C        -1.508661         1.424592        -0.098523
 O        -2.599900         1.184043         2.002482
 C        -1.922795        -0.085820         1.653186
 H         0.378295        -0.968011         0.887809
 H        -0.422476         1.667406         2.783292
 H         0.222829         2.593473         1.220174
 H        -3.428920         3.481438         0.384856
 H        -1.838106         4.294497         1.038613
 H        -1.836946         3.033531        -1.733514
 H        -0.296604         3.222961        -0.745896
 H        -2.280534         0.887833        -0.612170
 H        -1.494513        -0.624770         2.512558
 H        -2.645260        -0.708426         1.288292
