19
Iteration:  2386charge 0 multiplicity 1
 O         0.308334        -0.341863         0.304664
 C        -0.708089         0.535013         0.818472
 C        -0.500116         1.820283         1.704551
 C        -1.885428         2.092559         1.235858
 C        -2.119353         3.432725         0.589581
 C        -1.193499         3.022500        -0.562631
 C        -1.470903         1.514991        -0.100292
 O        -2.721147         1.063398         1.874764
 C        -1.931474        -0.099771         1.515263
 H        -0.160092        -0.982763        -0.288474
 H        -0.473212         1.637335         2.739179
 H         0.334464         2.490593         1.332189
 H        -3.205560         3.376396         0.271889
 H        -1.837091         4.216655         1.217278
 H        -1.643369         3.199615        -1.501074
 H        -0.202437         3.366951        -0.382958
 H        -2.334284         1.036501        -0.628128
 H        -1.572958        -0.638967         2.435678
 H        -2.604402        -0.795289         0.886838
