19
Iteration:  2481
 O         0.305528        -0.350307         0.408560
 C        -0.684158         0.594310         0.710391
 C        -0.513541         1.780184         1.715547
 C        -1.876662         2.088188         1.217839
 C        -2.165089         3.491186         0.668101
 C        -1.196314         2.974609        -0.587484
 C        -1.524228         1.507790        -0.227093
 O        -2.701370         1.073993         1.899290
 C        -1.905243        -0.109748         1.523901
 H        -0.067711        -0.883483        -0.255859
 H        -0.503351         1.340056         2.729345
 H         0.367113         2.399804         1.557601
 H        -3.145289         3.497151         0.136153
 H        -1.975486         4.327570         1.291543
 H        -1.572234         3.289920        -1.584467
 H        -0.191478         3.085305        -0.310731
 H        -2.275309         1.097335        -0.813537
 H        -1.530347        -0.562435         2.516680
 H        -2.402494        -0.816254         0.917343
