19
Iteration:  1712charge 0 multiplicity 1
 O         0.284101        -0.398226         0.353489
 C        -0.623173         0.569081         0.793036
 C        -0.414136         1.721621         1.807892
 C        -1.863866         2.067380         1.223540
 C        -2.182920         3.464315         0.644864
 C        -1.285433         3.014179        -0.573884
 C        -1.465932         1.527747        -0.201962
 O        -2.716084         1.079671         1.847926
 C        -1.942220        -0.050904         1.512155
 H        -0.270814        -0.756153        -0.402189
 H        -0.457759         1.465107         2.886160
 H         0.342270         2.490918         1.502701
 H        -3.183654         3.641337         0.373460
 H        -1.876750         4.387492         1.210738
 H        -1.898970         3.229457        -1.434315
 H        -0.327710         3.397649        -0.856004
 H        -2.125525         1.027168        -0.823787
 H        -1.506649        -0.527801         2.476244
 H        -2.460641        -0.753591         0.742762
