19
Iteration:  1341charge 0 multiplicity 1
 O         0.234134        -0.400613         0.274596
 C        -0.759036         0.550518         0.794137
 C        -0.449444         1.817522         1.657193
 C        -1.901956         2.106740         1.235886
 C        -2.162175         3.508246         0.567238
 C        -1.218088         2.965794        -0.575214
 C        -1.588421         1.461098        -0.183477
 O        -2.637840         1.041816         1.948706
 C        -1.871570        -0.075567         1.579970
 H         1.004595        -0.575151         0.925725
 H        -0.249533         1.716050         2.676504
 H         0.315092         2.584015         1.257537
 H        -3.211191         3.565131         0.237983
 H        -1.974133         4.540500         1.058026
 H        -1.528385         3.289608        -1.609846
 H        -0.189852         3.155438        -0.338472
 H        -2.390609         0.928254        -0.675299
 H        -1.620728        -0.482619         2.531784
 H        -2.308709        -0.730332         0.812387
