19
Iteration:  4079charge 0 multiplicity 1
 O         0.254120        -0.356534         0.325180
 C        -0.712830         0.540469         0.720110
 C        -0.393014         1.734049         1.664073
 C        -1.897931         2.066914         1.218733
 C        -2.231435         3.399917         0.626235
 C        -1.279984         2.937783        -0.716137
 C        -1.554029         1.479112        -0.148516
 O        -2.628871         1.163012         1.934570
 C        -1.885725         0.007428         1.643055
 H         1.060519        -0.108148         0.681355
 H        -0.443537         1.450441         2.706202
 H         0.452729         2.371650         1.262759
 H        -3.288268         3.394594         0.266268
 H        -2.018612         4.307763         1.246546
 H        -1.736941         2.990053        -1.781006
 H        -0.225930         3.084497        -0.576824
 H        -2.455651         1.069559        -0.572046
 H        -1.531675        -0.361668         2.610108
 H        -2.374975        -0.821325         1.266882
