19
Iteration:  1400
 O         0.294366        -0.365705         0.266445
 C        -0.716952         0.516860         0.800034
 C        -0.344964         1.827663         1.682946
 C        -1.827924         2.101329         1.249224
 C        -2.163190         3.447947         0.609232
 C        -1.370701         2.930285        -0.636902
 C        -1.499740         1.545576        -0.032738
 O        -2.693988         1.139759         1.853148
 C        -1.940974        -0.100342         1.529260
 H         0.490215        -1.110157         0.889168
 H        -0.235380         1.524850         2.751430
 H         0.265035         2.496911         1.204699
 H        -3.222646         3.479904         0.424819
 H        -1.736522         4.212312         1.099484
 H        -1.728326         3.009077        -1.635800
 H        -0.326329         3.414037        -0.811785
 H        -2.496792         1.157863        -0.456939
 H        -1.821089        -0.566526         2.579709
 H        -2.434163        -0.961221         0.984397
