19
Iteration:  1866charge 0 multiplicity 1
 O         0.278313        -0.401821         0.440192
 C        -0.709436         0.616391         0.666899
 C        -0.515035         1.748976         1.639980
 C        -1.931283         2.073141         1.239321
 C        -2.199286         3.520453         0.593640
 C        -1.172724         3.012315        -0.518768
 C        -1.465716         1.458367        -0.289335
 O        -2.673845         1.070703         2.034416
 C        -1.909936        -0.114837         1.532417
 H         0.204040        -0.483515        -0.613372
 H        -0.440734         1.488256         2.794740
 H         0.039616         2.632855         1.553874
 H        -3.178646         3.552003         0.127090
 H        -1.655858         4.351220         1.240462
 H        -1.553292         3.360968        -1.587332
 H        -0.142946         3.257509        -0.369589
 H        -2.165095         0.894989        -0.885798
 H        -1.423366        -0.714710         2.379143
 H        -2.530260        -0.555131         0.769228
