19
Iteration:   476charge 0 multiplicity 1
 O         0.271568        -0.342425         0.343472
 C        -0.675150         0.577627         0.752040
 C        -0.516283         1.780456         1.606530
 C        -1.949745         2.061642         1.106337
 C        -2.116403         3.428428         0.646520
 C        -1.279412         2.991860        -0.600870
 C        -1.599123         1.423696        -0.224174
 O        -2.597225         1.179188         2.017980
 C        -1.853064        -0.109809         1.576934
 H         0.652792        -0.698594         1.094987
 H        -0.568887         1.687261         2.773199
 H         0.220062         2.395192         1.308764
 H        -3.185237         3.546298         0.273696
 H        -1.782570         4.305442         1.182331
 H        -1.693856         3.295056        -1.512752
 H        -0.188753         3.211364        -0.470214
 H        -2.305691         0.942847        -0.879189
 H        -1.583264        -0.834546         2.480285
 H        -2.498303        -0.813324         0.963476
