19
Iteration:  4588
 O         0.338439        -0.279773         0.283686
 C        -0.731792         0.574543         0.825910
 C        -0.333156         1.798212         1.618791
 C        -1.839602         2.113999         1.156796
 C        -2.178423         3.455389         0.542070
 C        -1.308134         2.878533        -0.642299
 C        -1.675691         1.341924        -0.134741
 O        -2.649586         1.174038         1.970245
 C        -1.934817        -0.061324         1.677039
 H         0.350848        -0.987634         0.824891
 H        -0.098193         1.651644         2.671474
 H         0.369343         2.444706         1.051478
 H        -3.247988         3.506016         0.311543
 H        -1.827664         4.302510         0.937267
 H        -1.870450         3.202612        -1.530455
 H        -0.215591         3.209544        -0.620309
 H        -2.523390         0.840746        -0.634881
 H        -1.452494        -0.553243         2.569294
 H        -2.500291        -0.865608         1.193157
