19
Iteration:  3994charge 0 multiplicity 1
 O         0.367436        -0.435476         0.462527
 C        -0.683699         0.521648         0.708633
 C        -0.406402         1.689716         1.644005
 C        -1.857636         2.060529         1.181490
 C        -2.253741         3.442097         0.587490
 C        -1.349573         3.076592        -0.569160
 C        -1.588965         1.499577        -0.214931
 O        -2.635828         1.203410         1.925493
 C        -1.869900        -0.060685         1.648877
 H         0.176587        -0.866477        -0.491297
 H        -0.185598         1.639625         2.665265
 H         0.430012         2.259213         1.234775
 H        -3.304108         3.379682         0.232493
 H        -2.126396         4.364902         1.001883
 H        -1.709689         3.083259        -1.587589
 H        -0.308532         3.482216        -0.616561
 H        -2.386396         1.199615        -0.826321
 H        -1.600937        -0.539898         2.688344
 H        -2.580566        -0.773152         1.025163
