19
Iteration:  2896charge 0 multiplicity 1
 O         0.294311        -0.407168         0.403483
 C        -0.648528         0.605676         0.808616
 C        -0.454667         1.757024         1.714675
 C        -1.909273         2.096192         1.168737
 C        -2.215026         3.428586         0.649916
 C        -1.247248         3.085121        -0.606562
 C        -1.398979         1.436289        -0.186259
 O        -2.719035         1.093107         1.910070
 C        -1.893527        -0.034961         1.526255
 H        -0.378266        -0.861764        -0.292919
 H        -0.320766         1.401740         2.783220
 H         0.356101         2.293772         1.343815
 H        -3.264963         3.357548         0.308119
 H        -1.925289         4.195185         1.180145
 H        -1.827211         3.364374        -1.583423
 H        -0.268125         3.488276        -0.563162
 H        -2.217267         0.957245        -0.875344
 H        -1.682441        -0.671897         2.358388
 H        -2.477518        -0.715253         0.789163
