19
Iteration:  4938
 O         0.261799        -0.443821         0.316504
 C        -0.705562         0.504287         0.813664
 C        -0.344121         1.746956         1.580540
 C        -1.784149         2.065017         1.224860
 C        -2.288901         3.361273         0.579695
 C        -1.380033         2.953429        -0.663108
 C        -1.510248         1.489692        -0.133037
 O        -2.666310         1.235883         1.917086
 C        -1.866339         0.061041         1.661726
 H         0.576691        -0.899463         1.037884
 H        -0.067319         1.689716         2.646795
 H         0.282312         2.523087         1.065937
 H        -3.377881         3.338976         0.226252
 H        -2.138624         4.479684         1.002590
 H        -1.766048         3.183016        -1.607488
 H        -0.364544         3.431743        -0.797000
 H        -2.166215         0.861414        -0.659740
 H        -1.542657        -0.405221         2.640458
 H        -2.426462        -0.787605         1.293088
