19
Iteration:  3802charge 0 multiplicity 1
 O         0.298573        -0.368819         0.361976
 C        -0.662585         0.500045         0.770012
 C        -0.434444         1.820327         1.695063
 C        -1.856808         2.075990         1.120791
 C        -2.188874         3.444911         0.629479
 C        -1.316279         2.916677        -0.683662
 C        -1.515818         1.472176        -0.166804
 O        -2.661159         1.158810         1.994083
 C        -1.970524        -0.082539         1.605609
 H         0.743321        -0.080594        -0.364066
 H        -0.226038         1.494185         2.739577
 H         0.312486         2.586472         1.322677
 H        -3.143089         3.638456         0.368990
 H        -1.872703         4.338606         1.253212
 H        -1.935925         2.972405        -1.607484
 H        -0.296678         3.390042        -0.732044
 H        -2.280774         0.872270        -0.669834
 H        -1.508769        -0.444207         2.563331
 H        -2.661859        -0.912977         1.148765
