19
Iteration:  4146charge 0 multiplicity 1
 O         0.315252        -0.327742         0.306155
 C        -0.636999         0.573262         0.765795
 C        -0.383743         1.746865         1.708379
 C        -1.815048         2.144646         1.213060
 C        -2.190096         3.429205         0.564952
 C        -1.422021         2.929509        -0.654871
 C        -1.615997         1.401348        -0.130603
 O        -2.636284         1.157865         1.893556
 C        -1.912797        -0.021065         1.620450
 H         0.428982        -1.102298         1.024093
 H        -0.342631         1.425380         2.734124
 H         0.368903         2.303568         1.213595
 H        -3.275942         3.492766         0.238991
 H        -1.793499         4.309744         1.035458
 H        -1.792835         3.149751        -1.651832
 H        -0.375362         3.375561        -0.545655
 H        -2.313130         0.861317        -0.679312
 H        -1.531702        -0.530614         2.548094
 H        -2.528637        -0.737058         1.197058
