19
Iteration:   981
 O         0.259212        -0.324933         0.287915
 C        -0.681746         0.577664         0.699912
 C        -0.335133         1.804346         1.662033
 C        -1.872424         2.075679         1.210758
 C        -2.182810         3.434013         0.621157
 C        -1.310105         2.911816        -0.551292
 C        -1.600337         1.463929        -0.217846
 O        -2.679568         1.118698         1.976616
 C        -1.931484        -0.054934         1.578058
 H         0.829821        -0.716374         1.074103
 H        -0.188912         1.607865         2.746104
 H         0.341096         2.522372         1.309874
 H        -3.127931         3.538765         0.139925
 H        -1.868205         4.259545         1.227749
 H        -1.543200         3.312819        -1.621242
 H        -0.321999         3.046335        -0.471570
 H        -2.335306         0.733324        -0.724748
 H        -1.626098        -0.587015         2.441861
 H        -2.485171        -0.696575         0.969132
