19
Iteration:   288charge 0 multiplicity 1
 O         0.255318        -0.348957         0.277165
 C        -0.692613         0.560489         0.674059
 C        -0.331967         1.733475         1.660564
 C        -1.929422         2.058872         1.243162
 C        -2.231176         3.442439         0.548198
 C        -1.268050         2.946107        -0.557379
 C        -1.518688         1.425108        -0.185507
 O        -2.704364         1.186632         1.987209
 C        -1.898419        -0.054178         1.631954
 H         0.766555        -0.332269         1.040163
 H        -0.093885         1.366322         2.650734
 H         0.361448         2.532491         1.037496
 H        -3.283678         3.499451         0.243870
 H        -1.896980         4.323138         1.122846
 H        -1.531072         3.094744        -1.590952
 H        -0.172344         3.297170        -0.402527
 H        -2.330047         1.008731        -0.824000
 H        -1.745703        -0.504207         2.653728
 H        -2.465582        -0.767517         1.016144
