19
Iteration:  3814
 O         0.343186        -0.393429         0.378102
 C        -0.722769         0.571959         0.805848
 C        -0.399123         1.744071         1.634616
 C        -1.902414         2.107968         1.173013
 C        -2.289234         3.492623         0.659929
 C        -1.307927         2.907518        -0.616571
 C        -1.509918         1.339497        -0.207167
 O        -2.619288         1.223379         1.914517
 C        -1.909513        -0.055529         1.644587
 H         0.478149        -0.144704        -0.612317
 H        -0.383251         1.696162         2.771395
 H         0.467190         2.304446         1.227260
 H        -3.310014         3.536708         0.442268
 H        -1.881722         4.281359         1.355612
 H        -1.695562         3.228759        -1.649116
 H        -0.247519         3.256108        -0.671940
 H        -2.262613         0.895888        -0.827422
 H        -1.640425        -0.690390         2.574706
 H        -2.628265        -0.673519         0.944880
