19
Iteration:    92
 O         0.280237        -0.360178         0.374775
 C        -0.683258         0.523437         0.780071
 C        -0.248887         1.767178         1.607406
 C        -1.928070         2.091166         1.118785
 C        -2.181826         3.484050         0.611875
 C        -1.350252         2.942723        -0.584984
 C        -1.566468         1.400890        -0.114755
 O        -2.723281         1.140297         1.921519
 C        -1.904116        -0.030908         1.560680
 H         0.807985        -0.481646         1.099348
 H        -0.160950         1.599463         2.690210
 H         0.640150         2.379098         1.077048
 H        -3.191335         3.822196         0.375851
 H        -1.779977         4.176386         1.373060
 H        -1.940307         3.169734        -1.566222
 H        -0.308776         3.343484        -0.744886
 H        -2.400575         0.884384        -0.801913
 H        -1.645923        -0.574932         2.490326
 H        -2.595730        -0.675615         0.876626
