19
Iteration:  3495
 O         0.322383        -0.392136         0.400586
 C        -0.687132         0.612164         0.822544
 C        -0.429804         1.848050         1.688088
 C        -1.944178         2.049486         1.232526
 C        -2.107067         3.454125         0.605427
 C        -1.314778         2.979019        -0.639805
 C        -1.511675         1.450366        -0.198992
 O        -2.681687         1.080861         1.906692
 C        -1.984996        -0.098809         1.539591
 H         0.558241        -0.324985        -0.649188
 H        -0.197685         1.752136         2.787665
 H         0.317740         2.486260         1.292383
 H        -3.066893         3.867295         0.270278
 H        -1.739131         4.234681         1.425048
 H        -1.634514         3.073062        -1.688252
 H        -0.240546         3.190724        -0.519959
 H        -2.357372         0.881214        -0.507462
 H        -1.592854        -0.644913         2.470261
 H        -2.560400        -0.802854         0.976606
