19
Iteration:  4369charge 0 multiplicity 1
 O         0.225792        -0.370281         0.297863
 C        -0.667929         0.557874         0.829485
 C        -0.428469         1.885723         1.697447
 C        -1.858876         2.119261         1.224335
 C        -2.187553         3.432782         0.529459
 C        -1.349901         2.881514        -0.687936
 C        -1.612883         1.420723        -0.140862
 O        -2.613704         1.148653         1.997738
 C        -1.798444        -0.052977         1.571005
 H         0.388939        -1.222567         0.912066
 H        -0.114667         1.864920         2.720410
 H         0.417201         2.347608         1.163542
 H        -3.316402         3.553694         0.156029
 H        -1.959355         4.455579         0.992922
 H        -1.771694         2.949329        -1.735501
 H        -0.351955         3.182886        -0.696354
 H        -2.535727         0.994258        -0.470060
 H        -1.439375        -0.518973         2.452401
 H        -2.276834        -0.727243         0.862419
