19
Iteration:  1922
 O         0.321244        -0.402109         0.378499
 C        -0.650396         0.595527         0.741866
 C        -0.334605         1.703053         1.784394
 C        -1.880619         2.035705         1.224439
 C        -2.150239         3.380607         0.647888
 C        -1.327120         2.973474        -0.623225
 C        -1.516557         1.496779        -0.188986
 O        -2.792324         1.143609         1.866274
 C        -1.970947         0.028356         1.529455
 H         0.636627        -0.094136        -0.415119
 H        -0.574897         1.449874         2.888504
 H         0.431663         2.431673         1.538281
 H        -3.235503         3.583310         0.410632
 H        -1.713014         4.269363         1.331040
 H        -1.654136         3.369548        -1.626143
 H        -0.227741         3.260029        -0.687329
 H        -2.146130         0.915323        -0.834301
 H        -1.560612        -0.502398         2.425227
 H        -2.472668        -0.843671         1.026911
