19
Iteration:   846charge 0 multiplicity 1
 O         0.275260        -0.350377         0.280755
 C        -0.663236         0.597967         0.718815
 C        -0.428873         1.853199         1.591241
 C        -1.927430         2.058531         1.198732
 C        -2.192202         3.413074         0.663320
 C        -1.268565         2.907512        -0.574353
 C        -1.538149         1.435217        -0.140287
 O        -2.686624         1.151523         1.955320
 C        -1.867922        -0.078693         1.566153
 H         0.568983        -0.906302         1.059447
 H        -0.230567         1.714631         2.669490
 H         0.356429         2.508916         1.130516
 H        -3.230221         3.499905         0.312233
 H        -1.784051         4.312425         1.160767
 H        -1.592037         3.182444        -1.546032
 H        -0.266761         3.274945        -0.177065
 H        -2.577563         1.049410        -0.617287
 H        -1.609278        -0.671986         2.396462
 H        -2.433203        -0.754167         0.906023
