19
Iteration:  1411charge 0 multiplicity 1
 O         0.248673        -0.354251         0.272373
 C        -0.639396         0.578739         0.795704
 C        -0.402515         1.735465         1.720612
 C        -1.846398         2.122935         1.336927
 C        -2.133937         3.441440         0.612800
 C        -1.352097         2.906368        -0.664092
 C        -1.555280         1.474516        -0.088339
 O        -2.706052         1.121571         1.849889
 C        -1.855240        -0.020678         1.505047
 H         0.301533        -1.100561         1.006117
 H        -0.165043         1.713793         2.816004
 H         0.291010         2.403141         1.353627
 H        -3.161320         3.660639         0.354049
 H        -1.812747         4.336531         0.990078
 H        -1.975185         2.933756        -1.528739
 H        -0.308479         3.364981        -0.788164
 H        -2.473532         0.984309        -0.567432
 H        -1.517413        -0.625209         2.415503
 H        -2.456316        -0.543594         0.726012
