19
Iteration:   930
 O         0.207633        -0.361712         0.215747
 C        -0.645172         0.560712         0.758019
 C        -0.413645         1.803991         1.684405
 C        -1.895929         2.056474         1.239361
 C        -2.192003         3.385914         0.624667
 C        -1.283532         2.937960        -0.587879
 C        -1.523028         1.450070        -0.147642
 O        -2.682530         1.121059         1.929144
 C        -1.875634        -0.005089         1.581403
 H         0.840058        -0.750584         0.884680
 H        -0.230070         1.674616         2.794557
 H         0.189223         2.578053         1.297799
 H        -3.287133         3.575655         0.332019
 H        -1.725996         4.290815         1.002797
 H        -1.587007         3.168934        -1.573285
 H        -0.350874         3.569133        -0.487806
 H        -2.215975         0.882746        -0.617777
 H        -1.568347        -0.454330         2.603132
 H        -2.538047        -0.699724         0.972084
