19
Iteration:  4823charge 0 multiplicity 1
 O         0.215020        -0.435441         0.301211
 C        -0.699212         0.569328         0.808222
 C        -0.417428         1.825442         1.637471
 C        -1.871999         2.090142         1.194568
 C        -2.201411         3.453628         0.529640
 C        -1.423041         2.943962        -0.678383
 C        -1.486295         1.416907        -0.167875
 O        -2.616341         1.168956         2.035993
 C        -1.836071        -0.038976         1.648338
 H         0.686113        -0.743120         1.044233
 H        -0.137915         1.558165         2.662264
 H         0.300877         2.604651         1.311421
 H        -3.190694         3.657923         0.178655
 H        -1.845675         4.345577         0.918347
 H        -1.789538         3.194368        -1.766446
 H        -0.355527         3.265993        -0.670832
 H        -2.309265         0.968285        -0.807115
 H        -1.388788        -0.647634         2.440907
 H        -2.342421        -0.797788         0.993197
