19
Iteration:  3168charge 0 multiplicity 1
 O         0.259235        -0.399664         0.291551
 C        -0.717327         0.625656         0.735104
 C        -0.396333         1.825102         1.722272
 C        -1.932229         2.085437         1.191750
 C        -2.245598         3.424142         0.573517
 C        -1.192531         2.929861        -0.559686
 C        -1.483106         1.445124        -0.178085
 O        -2.683136         1.142014         1.942572
 C        -1.874391        -0.051697         1.570804
 H         0.325369        -1.037985         0.936592
 H        -0.236729         1.637225         2.772344
 H         0.348357         2.501304         1.174473
 H        -3.340542         3.405364         0.181627
 H        -2.309416         4.363879         1.245731
 H        -1.632633         3.259937        -1.612845
 H        -0.213786         3.393744        -0.515976
 H        -2.240448         0.925924        -0.745154
 H        -1.353743        -0.653352         2.394367
 H        -2.480274        -0.806201         1.112412
