19
Iteration:  3701charge 0 multiplicity 1
 O         0.183311        -0.462647         0.367541
 C        -0.668262         0.558494         0.756555
 C        -0.413199         1.805414         1.667231
 C        -1.823063         2.113804         1.267217
 C        -2.229243         3.456176         0.581442
 C        -1.346906         2.951296        -0.646310
 C        -1.545945         1.466449        -0.150418
 O        -2.631477         1.169377         1.926709
 C        -1.825595        -0.073314         1.535853
 H         1.193887        -0.159600         0.416697
 H        -0.294775         1.794248         2.763173
 H         0.207425         2.584971         1.226885
 H        -3.233583         3.193144         0.345631
 H        -2.176430         4.440667         1.037425
 H        -1.570555         3.146526        -1.667711
 H        -0.269828         3.151110        -0.499841
 H        -2.478693         0.893868        -0.455741
 H        -1.478897        -0.607237         2.414545
 H        -2.519768        -0.819234         0.933665
