19
Iteration:  1708charge 0 multiplicity 1
 O         0.264177        -0.411087         0.349354
 C        -0.621263         0.563692         0.818610
 C        -0.385251         1.762599         1.815265
 C        -1.873286         2.052850         1.234108
 C        -2.158756         3.506982         0.628615
 C        -1.309461         3.026556        -0.570225
 C        -1.448055         1.532624        -0.183204
 O        -2.731746         1.035942         1.861366
 C        -1.939148        -0.049656         1.479436
 H        -0.132681        -0.765190        -0.445248
 H        -0.442998         1.507488         2.828469
 H         0.358010         2.485225         1.440163
 H        -3.206722         3.584403         0.136340
 H        -1.758378         4.318999         1.197493
 H        -1.934966         3.259625        -1.419070
 H        -0.321597         3.464868        -0.879641
 H        -2.205819         0.975327        -0.824225
 H        -1.632812        -0.543888         2.401448
 H        -2.429348        -0.766853         0.890188
