19
Iteration:  4186charge 0 multiplicity 1
 O         0.306977        -0.291227         0.304248
 C        -0.724880         0.562246         0.769519
 C        -0.469259         1.829650         1.619596
 C        -1.938232         2.050607         1.187250
 C        -2.129505         3.445515         0.555798
 C        -1.277287         2.920406        -0.608727
 C        -1.549912         1.383954        -0.166012
 O        -2.632206         1.106258         1.964342
 C        -1.872909        -0.028790         1.672202
 H         0.016042        -1.123846         0.586083
 H        -0.284014         1.816806         2.730666
 H         0.255169         2.590628         1.211261
 H        -3.196770         3.542538         0.463496
 H        -1.753171         4.374830         1.143840
 H        -1.780691         3.251412        -1.577476
 H        -0.261958         3.218202        -0.699524
 H        -2.322230         0.713370        -0.760667
 H        -1.418689        -0.418698         2.574660
 H        -2.518287        -0.698754         1.034542
