19
Iteration:  2261charge 0 multiplicity 1
 O         0.309000        -0.416467         0.427056
 C        -0.809887         0.482359         0.732003
 C        -0.452131         1.681605         1.562933
 C        -1.882009         2.060274         1.213226
 C        -2.242258         3.495237         0.667497
 C        -1.235262         3.041276        -0.548912
 C        -1.489082         1.540879        -0.188464
 O        -2.659250         1.142145         1.884439
 C        -1.934993        -0.126296         1.546368
 H         1.103057         0.123652         0.385169
 H        -0.095152         1.492463         2.595407
 H         0.340500         2.299421         1.113206
 H        -3.217382         3.629600         0.347198
 H        -2.089054         4.529141         1.034571
 H        -1.439019         3.417561        -1.567826
 H        -0.162374         3.395856        -0.211608
 H        -2.287362         1.116646        -0.761928
 H        -1.471297        -0.609955         2.532201
 H        -2.552697        -0.849522         1.095356
