19
Iteration:   579charge 0 multiplicity 1
 O         0.245999        -0.347323         0.307175
 C        -0.702103         0.511824         0.784039
 C        -0.395960         1.876833         1.670622
 C        -1.917600         2.113657         1.190171
 C        -2.180835         3.488760         0.573295
 C        -1.289187         2.933113        -0.575077
 C        -1.556350         1.461369        -0.145103
 O        -2.619028         1.100853         1.967841
 C        -1.919930        -0.148315         1.544338
 H         0.615061        -0.808728         1.180675
 H        -0.175488         1.874247         2.680134
 H         0.408053         2.545870         1.086492
 H        -3.186810         3.545084         0.189777
 H        -1.913343         4.399280         1.188565
 H        -1.554515         3.110316        -1.692040
 H        -0.290871         3.364872        -0.619519
 H        -2.375684         1.004334        -0.925707
 H        -1.468974        -0.767139         2.397677
 H        -2.563478        -0.903063         0.967984
