19
Iteration:   177charge 0 multiplicity 1
 O         0.315198        -0.343995         0.304715
 C        -0.682729         0.570330         0.668842
 C        -0.415867         1.744816         1.600488
 C        -1.947343         2.037718         1.219215
 C        -2.200158         3.393031         0.575173
 C        -1.210294         2.934020        -0.580723
 C        -1.558191         1.480912        -0.252081
 O        -2.677264         1.208298         2.055366
 C        -1.954557        -0.063664         1.638129
 H         0.721586        -0.719956         1.193977
 H        -0.138682         1.523637         2.586262
 H         0.456435         2.510523         1.287673
 H        -3.217177         3.382457         0.188605
 H        -2.060158         4.248302         1.264314
 H        -1.648982         3.269681        -1.574022
 H        -0.239022         3.275463        -0.638243
 H        -2.257228         1.036883        -0.925667
 H        -1.587893        -0.480494         2.557396
 H        -2.623484        -0.770557         1.227829
