19
Iteration:  1177
 O         0.257421        -0.352992         0.317164
 C        -0.703882         0.625524         0.738047
 C        -0.424980         1.823575         1.651496
 C        -1.893093         2.095383         1.239500
 C        -2.120273         3.479244         0.578451
 C        -1.305745         2.908516        -0.543135
 C        -1.585718         1.412875        -0.191178
 O        -2.665053         1.114782         1.963873
 C        -1.870399        -0.115314         1.514871
 H         0.648705        -0.706663         1.201480
 H        -0.372445         1.524448         2.677275
 H         0.394750         2.477227         1.436264
 H        -3.120246         3.686315         0.366912
 H        -1.705379         4.379400         1.023565
 H        -1.736067         3.078915        -1.616256
 H        -0.338663         3.193693        -0.404742
 H        -2.398549         1.026533        -0.818452
 H        -1.400577        -0.686434         2.339334
 H        -2.617969        -0.650852         0.799305
