19
Iteration:  4576charge 0 multiplicity 1
 O         0.459666         0.017621        -0.046901
 C        -0.318115         0.442033         1.008575
 C        -1.697264        -0.051529         1.486416
 C        -1.800708         1.439121         1.975073
 C        -2.918109         2.207820         1.257956
 O        -2.190906         2.056717        -0.060213
 C        -0.936886         1.741079         0.711025
 C        -0.943845         1.502949         3.195029
 C         0.299190         0.882403         2.473508
 H         1.002756        -0.734940         0.175145
 H        -2.442382        -0.247838         0.668228
 H        -1.822681        -0.815705         2.276212
 H        -4.007515         1.841318         1.291532
 H        -2.938810         3.329851         1.477972
 H        -0.330457         2.615790         0.673676
 H        -0.836752         2.672681         3.354197
 H        -1.214447         0.956561         4.162108
 H         1.104988         1.679794         2.326737
 H         0.809299        -0.056323         2.919811
