19
Iteration:  3699
 O         0.508093        -0.147242         0.112108
 C        -0.304781         0.564961         1.007396
 C        -1.623824        -0.035317         1.576983
 C        -1.864904         1.476766         1.999630
 C        -3.060296         2.088507         1.150118
 O        -2.251935         2.014064        -0.014338
 C        -1.015817         1.866204         0.763777
 C        -0.871573         1.578767         3.129138
 C         0.447462         0.865415         2.338961
 H         0.186345         0.201152        -0.745562
 H        -2.244299        -0.392013         0.733892
 H        -1.605078        -0.830522         2.302984
 H        -3.931138         1.500303         1.105577
 H        -3.377336         3.186266         1.207540
 H        -0.349132         2.776925         0.762981
 H        -0.452476         2.545687         3.270672
 H        -1.065988         1.148105         4.158446
 H         1.148073         1.651701         2.152830
 H         0.952867        -0.129291         2.811150
