19
Iteration:  1475
 O         0.692514        -0.105069         0.166282
 C        -0.218174         0.552007         0.960519
 C        -1.652420        -0.115842         1.606615
 C        -1.803772         1.388701         2.039891
 C        -3.070323         2.143913         1.272660
 O        -2.388388         1.954211        -0.030237
 C        -1.135207         1.804423         0.627759
 C        -0.800172         1.679184         3.075344
 C         0.353722         0.992701         2.288108
 H         0.296676        -0.892553        -0.299381
 H        -2.318955        -0.386193         0.825078
 H        -1.568426        -0.805379         2.430874
 H        -4.192213         1.758477         1.191557
 H        -3.071940         3.223959         1.391027
 H        -0.549059         2.773474         0.633594
 H        -0.782545         2.736778         3.011370
 H        -0.930311         1.210550         4.064556
 H         1.230487         1.764841         2.236921
 H         0.775332         0.080905         2.800663
