19
Iteration:  2163
 O         0.566880        -0.137292         0.111501
 C        -0.255427         0.557464         0.983722
 C        -1.558535         0.045377         1.617881
 C        -1.829493         1.484578         1.941795
 C        -3.006612         2.111267         1.232999
 O        -2.349041         1.768043        -0.019355
 C        -1.100679         1.863423         0.687349
 C        -0.828451         1.567444         3.156458
 C         0.402065         1.034473         2.286774
 H         0.024324        -0.137435        -0.747480
 H        -2.372598        -0.263668         0.906812
 H        -1.508059        -0.694539         2.500754
 H        -4.052526         1.654652         1.415321
 H        -3.177224         3.205348         1.327558
 H        -0.695166         2.980501         0.595515
 H        -0.779645         2.601172         3.536639
 H        -1.113434         0.880031         4.016860
 H         1.279015         1.833568         2.181312
 H         0.875985         0.262932         2.819809
