19
Iteration:   386charge 0 multiplicity 1
 O         0.609269        -0.058965         0.120188
 C        -0.290350         0.556734         0.960012
 C        -1.548212        -0.041367         1.695141
 C        -1.849757         1.523744         2.028081
 C        -3.112011         2.021255         1.172174
 O        -2.328761         1.862553        -0.022917
 C        -1.065499         1.831475         0.753228
 C        -0.833975         1.577564         3.073718
 C         0.391869         1.053803         2.214249
 H         0.205402        -0.791187        -0.398002
 H        -2.329365        -0.545097         1.157168
 H        -1.430565        -0.620535         2.645036
 H        -4.149338         1.616475         1.120297
 H        -3.323201         3.085771         1.288101
 H        -0.408266         2.809134         0.627690
 H        -0.654725         2.597491         3.386735
 H        -1.012459         0.942496         4.009268
 H         1.106827         1.847505         2.000899
 H         1.040210         0.315018         2.758183
