19
Iteration:  2794
 O         0.712748        -0.263098         0.168604
 C        -0.289885         0.514908         0.952377
 C        -1.607963        -0.068029         1.480478
 C        -1.896887         1.415912         2.003105
 C        -3.027785         2.187248         1.295548
 O        -2.405361         1.972325         0.009324
 C        -1.085343         1.763853         0.717692
 C        -0.819373         1.611002         3.053770
 C         0.368518         1.111329         2.301911
 H         0.563077         0.073612        -0.691022
 H        -2.338412        -0.419577         0.805907
 H        -1.494471        -0.858257         2.212325
 H        -4.188471         1.969105         1.396853
 H        -3.038129         3.346492         1.587125
 H        -0.434343         2.765167         0.681825
 H        -0.705650         2.593854         3.525860
 H        -1.172263         0.935245         3.859148
 H         1.083381         1.846164         2.166748
 H         0.948302         0.347992         2.863268
