19
Iteration:  1296charge 0 multiplicity 1
 O         0.516826        -0.138666         0.083308
 C        -0.259607         0.566083         0.991332
 C        -1.646823        -0.076246         1.672768
 C        -1.806763         1.379400         2.031555
 C        -3.089027         1.988445         1.202885
 O        -2.250436         1.864884        -0.056239
 C        -1.110692         1.858257         0.725990
 C        -0.816859         1.742203         3.133510
 C         0.455917         1.102411         2.258346
 H         0.031593        -0.245509        -0.715839
 H        -2.431458        -0.485327         1.011371
 H        -1.438959        -0.829617         2.503893
 H        -3.966548         1.360797         1.119096
 H        -3.182811         2.990091         1.512108
 H        -0.563588         2.842217         0.528094
 H        -0.589766         2.849869         3.309788
 H        -1.033611         1.311089         4.096131
 H         0.964784         1.972237         2.112450
 H         1.072896         0.274325         2.805292
