19
Iteration:  3525
 O         0.671363        -0.046590         0.168148
 C        -0.342511         0.491688         0.939959
 C        -1.730090        -0.131003         1.485729
 C        -1.839606         1.430591         2.023848
 C        -3.029529         2.136187         1.265873
 O        -2.316186         2.018618        -0.017675
 C        -1.046263         1.779811         0.669267
 C        -0.792129         1.595695         3.113586
 C         0.400948         0.978132         2.340283
 H         0.177813        -0.497367        -0.503186
 H        -2.479171        -0.346003         0.734075
 H        -1.788559        -0.895278         2.303411
 H        -4.023535         1.530010         1.228593
 H        -3.142589         3.197349         1.587761
 H        -0.322915         2.577293         0.646053
 H        -0.602704         2.639358         3.202192
 H        -1.156103         1.269933         4.147064
 H         1.122895         1.780639         2.236026
 H         0.923142         0.212385         2.860721
