19
Iteration:  3071charge 0 multiplicity 1
 O         0.675237        -0.230826         0.274762
 C        -0.372877         0.508383         0.970842
 C        -1.639162        -0.100358         1.487042
 C        -1.807547         1.493195         1.970596
 C        -3.116406         2.046509         1.279017
 O        -2.405476         2.020704        -0.004612
 C        -1.108097         1.948194         0.684005
 C        -0.709518         1.667085         3.096820
 C         0.400262         0.952142         2.269014
 H         0.664225         0.073176        -0.699546
 H        -2.299976        -0.464027         0.715523
 H        -1.297774        -0.869292         2.120755
 H        -4.007625         1.300643         1.266193
 H        -3.498474         3.073168         1.481544
 H        -0.582288         3.001327         0.527163
 H        -0.425901         2.771428         3.271918
 H        -0.942399         1.264876         4.092904
 H         1.303787         1.529437         2.082459
 H         0.842676        -0.110036         2.651802
