19
Iteration:  1451charge 0 multiplicity 1
 O         0.572826        -0.125555         0.192403
 C        -0.313272         0.507072         1.031009
 C        -1.631989        -0.049059         1.536835
 C        -1.793650         1.565226         2.011362
 C        -3.102986         2.059214         1.259688
 O        -2.302867         1.866013        -0.033239
 C        -1.017833         1.809840         0.655219
 C        -0.823037         1.602980         3.124497
 C         0.412627         1.073158         2.254615
 H         0.155565        -0.239808        -0.725284
 H        -2.507429        -0.282609         0.876378
 H        -1.511037        -0.682689         2.442148
 H        -4.014065         1.401531         1.223578
 H        -3.397170         3.109583         1.425210
 H        -0.395566         2.763514         0.465477
 H        -0.691849         2.665160         3.536414
 H        -1.003000         0.769234         3.826773
 H         1.071171         1.861284         1.854481
 H         1.055002         0.355074         2.966321
