19
Iteration:   229charge 0 multiplicity 1
 O         0.679433        -0.130694         0.082971
 C        -0.194000         0.602760         0.991866
 C        -1.538419        -0.094180         1.610677
 C        -1.865318         1.375412         1.989468
 C        -3.040732         2.054856         1.288960
 O        -2.476096         1.840164        -0.035450
 C        -1.194205         1.828347         0.658530
 C        -0.822690         1.739111         3.048654
 C         0.456809         1.102721         2.352519
 H         0.234415        -0.935124        -0.346244
 H        -2.312409        -0.447989         0.867227
 H        -1.488501        -0.789003         2.414718
 H        -4.060367         1.681055         1.383082
 H        -2.959766         3.175646         1.457395
 H        -0.801627         2.951646         0.572342
 H        -0.714684         2.849820         3.307259
 H        -0.999725         1.339391         4.040108
 H         1.332835         1.753237         2.260118
 H         0.735980         0.149735         2.903919
