19
Iteration:  4378
 O         0.583092        -0.147104         0.057042
 C        -0.366471         0.465488         0.991462
 C        -1.652110        -0.075396         1.397212
 C        -1.844300         1.453270         1.956095
 C        -3.003882         2.168207         1.259925
 O        -2.204739         2.111486        -0.013439
 C        -1.054698         1.940493         0.755205
 C        -0.856593         1.551404         3.180289
 C         0.295005         0.888238         2.387134
 H         0.805596        -1.064273         0.415688
 H        -2.320540        -0.293485         0.589547
 H        -1.641098        -0.816484         2.206606
 H        -3.778551         1.432797         1.049850
 H        -3.280084         3.198096         1.509715
 H        -0.203364         2.745610         0.826666
 H        -0.716087         2.643508         3.424937
 H        -1.003387         0.888649         4.018276
 H         1.139447         1.589701         2.277598
 H         0.576152        -0.052377         2.762330
