19
Iteration:  4487charge 0 multiplicity 1
 O         0.534507        -0.289005         0.018253
 C        -0.271590         0.558668         0.965668
 C        -1.616679        -0.055158         1.478693
 C        -1.877572         1.438610         1.968661
 C        -2.971422         2.084109         1.242481
 O        -2.239735         2.248287         0.020587
 C        -0.976571         1.921930         0.682745
 C        -0.982333         1.499332         3.208687
 C         0.278818         0.947879         2.363705
 H         0.961113        -0.974606         0.544153
 H        -2.313687        -0.418296         0.698402
 H        -1.452887        -0.877051         2.257513
 H        -3.975055         1.573510         1.130435
 H        -2.923257         3.169238         1.632787
 H        -0.189684         2.649425         0.546077
 H        -0.748236         2.625479         3.421148
 H        -1.140651         0.726033         4.010408
 H         1.066600         1.786903         2.258190
 H         0.837673         0.048364         2.856516
