19
Iteration:   354charge 0 multiplicity 1
 O         0.622133        -0.191930         0.208090
 C        -0.247431         0.473130         1.016215
 C        -1.580514        -0.110121         1.457276
 C        -1.772480         1.525235         1.945396
 C        -3.046635         2.030819         1.344431
 O        -2.500796         1.872194        -0.045597
 C        -1.085097         1.803494         0.666571
 C        -0.791166         1.685364         3.084993
 C         0.390650         1.120557         2.310056
 H         0.753409         0.357162        -0.608975
 H        -2.289470        -0.137812         0.651103
 H        -1.599641        -0.732485         2.381509
 H        -4.070828         1.549524         1.584974
 H        -3.051067         3.156613         1.434357
 H        -0.460141         2.802855         0.437518
 H        -0.760185         2.715446         3.382492
 H        -1.022906         1.005289         4.010128
 H         1.077773         1.972619         2.127955
 H         0.905753         0.462647         3.013001
