19
Iteration:   213
 O         0.760337        -0.105961         0.189670
 C        -0.302872         0.438281         0.983326
 C        -1.580482        -0.092650         1.557547
 C        -1.835322         1.480384         1.988630
 C        -3.172181         2.055182         1.361441
 O        -2.461559         1.869292        -0.021274
 C        -1.070333         1.792139         0.654065
 C        -0.793427         1.813735         3.059710
 C         0.386382         1.034297         2.260893
 H         0.319722        -0.215761        -0.674261
 H        -2.204860        -0.344133         0.732782
 H        -1.354468        -0.805246         2.409747
 H        -3.988852         1.308802         1.443535
 H        -3.383243         3.080777         1.572485
 H        -0.456212         2.623692         0.557727
 H        -0.589128         2.859032         3.093359
 H        -0.957776         1.333300         4.062412
 H         1.111890         1.807305         1.897673
 H         0.976013         0.270250         2.740223
