19
Iteration:  3774charge 0 multiplicity 1
 O         0.631824        -0.184109         0.141537
 C        -0.329339         0.482070         0.946439
 C        -1.717732        -0.010029         1.445780
 C        -1.802221         1.480903         1.977820
 C        -3.014894         2.160726         1.291510
 O        -2.366198         2.022608        -0.041150
 C        -1.057531         1.959944         0.674718
 C        -0.786700         1.506862         3.138180
 C         0.349075         0.863406         2.361244
 H         1.410339        -0.320995         0.710484
 H        -2.476128        -0.268607         0.710299
 H        -1.728011        -0.739100         2.217469
 H        -3.888416         1.597563         1.198685
 H        -3.230192         3.246655         1.466553
 H        -0.519202         3.021083         0.511918
 H        -0.524927         2.528786         3.348845
 H        -1.230680         1.069170         4.067700
 H         1.152986         1.577444         2.141407
 H         0.927588        -0.063839         2.898384
