19
Iteration:  4413
 O         0.515925        -0.011427         0.049535
 C        -0.259814         0.534704         1.030775
 C        -1.628547         0.006082         1.435785
 C        -1.802448         1.593562         1.931063
 C        -2.966722         2.181558         1.285642
 O        -2.332356         1.944796        -0.060894
 C        -0.941424         1.912300         0.704703
 C        -0.885719         1.519435         3.101570
 C         0.309674         0.682640         2.480852
 H         0.920783        -0.917397         0.193799
 H        -2.169580        -0.381807         0.579595
 H        -1.849269        -0.589555         2.282056
 H        -3.964464         1.635171         1.345131
 H        -3.319692         3.194334         1.492802
 H        -0.299711         2.926973         0.491657
 H        -0.645754         2.516174         3.486843
 H        -1.340232         1.091314         3.985783
 H         1.304010         1.076928         2.628112
 H         0.363152        -0.247791         2.954685
