19
Iteration:  1524charge 0 multiplicity 1
 O         0.643620        -0.186380         0.180869
 C        -0.294177         0.560656         0.984138
 C        -1.647136         0.021755         1.519547
 C        -1.828370         1.455597         2.003158
 C        -3.102203         2.037398         1.306537
 O        -2.365180         1.902558         0.005636
 C        -1.076167         1.833870         0.619388
 C        -0.789843         1.713733         3.071577
 C         0.407596         1.021121         2.368714
 H         0.359748        -0.462673        -0.674299
 H        -2.222949        -0.321519         0.613619
 H        -1.446664        -0.754604         2.281552
 H        -4.010104         1.417786         1.258761
 H        -3.278321         3.170813         1.556010
 H        -0.342245         2.570231         0.347488
 H        -0.663065         2.799955         3.250316
 H        -1.083565         1.136281         3.930133
 H         1.276200         1.600135         2.170587
 H         0.754833         0.047229         2.725300
