19
Iteration:   533
 O         0.473030        -0.206210         0.140168
 C        -0.210590         0.556749         1.029495
 C        -1.493623        -0.039171         1.576266
 C        -1.814405         1.420982         1.948728
 C        -3.077286         1.925255         1.272876
 O        -2.389086         1.999617        -0.043348
 C        -1.098409         1.845717         0.694850
 C        -0.813781         1.725685         3.027188
 C         0.383694         1.052490         2.348348
 H         1.028703         0.262777        -0.460938
 H        -2.182740        -0.535359         0.905711
 H        -1.353555        -0.774303         2.384554
 H        -3.938185         1.262450         1.284467
 H        -3.319033         2.943272         1.579220
 H        -0.618691         2.932261         0.672072
 H        -0.631187         2.812586         3.208436
 H        -0.965464         1.162724         3.928141
 H         1.360307         1.595505         2.211731
 H         0.597508         0.179811         2.875464
