19
Iteration:  2452charge 0 multiplicity 1
 O         0.542559        -0.207891         0.073965
 C        -0.274350         0.580768         0.974911
 C        -1.526181        -0.021014         1.559740
 C        -1.815274         1.452817         2.016559
 C        -3.079330         1.970807         1.261331
 O        -2.314562         1.967836        -0.016909
 C        -1.054965         1.984729         0.672767
 C        -0.745665         1.747224         3.124664
 C         0.280764         0.905862         2.380212
 H         0.012355        -0.273256        -0.720891
 H        -2.227544        -0.333642         0.824911
 H        -1.353470        -0.895199         2.163943
 H        -3.824878         1.033680         1.119285
 H        -3.666850         2.858548         1.377804
 H        -0.550183         2.874129         0.670174
 H        -0.431765         2.780551         3.269286
 H        -0.936946         1.419397         4.136292
 H         1.287383         1.446486         2.258472
 H         0.462562        -0.128468         3.019354
