19
Iteration:   579
 O         0.528360        -0.092738         0.074214
 C        -0.318067         0.498774         1.023798
 C        -1.607854        -0.082358         1.677078
 C        -1.837211         1.413871         1.966702
 C        -3.068638         2.039849         1.258140
 O        -2.344849         1.860585        -0.034607
 C        -1.030254         1.813329         0.691942
 C        -0.788401         1.691880         3.078401
 C         0.414848         1.076021         2.322454
 H         0.833161         0.650335        -0.434478
 H        -2.111421        -0.429176         0.770071
 H        -1.812932        -0.820913         2.493755
 H        -3.947748         1.454227         1.050464
 H        -3.232553         3.146012         1.464493
 H        -0.437617         2.826345         0.590001
 H        -0.708730         2.759564         3.258571
 H        -0.941938         1.141105         3.989504
 H         1.161846         1.773968         2.061505
 H         0.919914         0.179006         2.814096
