19
Iteration:   846
 O         0.634680        -0.139118         0.082547
 C        -0.250470         0.504758         0.948143
 C        -1.691038         0.033856         1.661699
 C        -1.800506         1.499071         2.004500
 C        -3.069329         2.047163         1.269353
 O        -2.393100         1.758145        -0.010398
 C        -1.066625         1.810851         0.701424
 C        -0.834491         1.691944         3.128598
 C         0.434701         1.047907         2.273948
 H         0.624554         0.426730        -0.750124
 H        -2.438883        -0.404556         1.023740
 H        -1.572984        -0.531122         2.573824
 H        -4.025949         1.539844         1.307863
 H        -3.278976         3.097559         1.340771
 H        -0.502069         2.688423         0.279861
 H        -0.535706         2.708475         3.419205
 H        -0.988505         1.174320         4.022888
 H         0.957904         1.888101         1.908866
 H         1.063487         0.260199         2.782149
