19
Iteration:  3016charge 0 multiplicity 1
 O         0.560284        -0.062110         0.074519
 C        -0.314071         0.462419         0.991906
 C        -1.606142        -0.074248         1.570558
 C        -1.841316         1.449666         1.981881
 C        -2.999213         2.148925         1.266390
 O        -2.308151         1.889142        -0.065619
 C        -1.076955         1.752757         0.763287
 C        -0.796583         1.623124         3.164404
 C         0.362258         1.080491         2.311134
 H         0.167556        -0.554010        -0.685023
 H        -2.310382        -0.320373         0.775512
 H        -1.503451        -0.815929         2.322945
 H        -4.089449         1.826452         1.149491
 H        -2.911795         3.245757         1.524797
 H        -0.472296         2.751826         0.606199
 H        -0.584339         2.655560         3.562413
 H        -1.081208         0.976000         4.002507
 H         1.018510         1.893706         2.146052
 H         0.833853         0.180102         2.770599
