19
Iteration:  4773charge 0 multiplicity 1
 O         0.610502        -0.225759         0.078328
 C        -0.255739         0.389447         1.055673
 C        -1.714861        -0.094855         1.462910
 C        -1.858161         1.411040         1.913224
 C        -3.017039         2.238376         1.300557
 O        -2.263063         2.203519        -0.001170
 C        -1.068466         1.822979         0.689254
 C        -0.926916         1.503029         3.095333
 C         0.382685         0.961853         2.371349
 H         1.439530         0.276594         0.081129
 H        -2.238683        -0.217630         0.516530
 H        -2.004646        -0.941529         2.179079
 H        -4.025945         1.905021         1.067205
 H        -2.996336         3.225934         1.700631
 H        -0.244288         2.663222         0.921283
 H        -0.886368         2.514220         3.555087
 H        -1.226530         0.901313         3.958179
 H         1.287282         1.615686         2.155881
 H         0.672235         0.021160         2.878569
