19
Iteration:  3185charge 0 multiplicity 1
 O         0.658551        -0.199376         0.226378
 C        -0.332547         0.510403         0.939048
 C        -1.657281        -0.068326         1.571386
 C        -1.754545         1.426671         1.965422
 C        -3.060989         2.003996         1.330853
 O        -2.396651         2.084362        -0.010498
 C        -1.055517         1.863613         0.622815
 C        -0.817165         1.714403         3.030303
 C         0.379125         0.952476         2.310989
 H         0.751847        -0.121225        -0.783153
 H        -2.409485        -0.424087         0.835681
 H        -1.484692        -0.892817         2.309079
 H        -4.017198         1.309501         1.503578
 H        -3.288467         3.092680         1.603167
 H        -0.319691         2.798529         0.631588
 H        -0.683424         2.712081         3.297285
 H        -1.104238         1.216101         3.937976
 H         1.213701         1.636568         2.066398
 H         0.574115         0.067280         2.809962
