19
Iteration:  1555charge 0 multiplicity 1
 O         0.533414        -0.187379         0.130488
 C        -0.340821         0.554917         1.039599
 C        -1.648839         0.025407         1.695454
 C        -1.821881         1.456268         2.012467
 C        -3.047893         2.016641         1.224446
 O        -2.280818         1.888321        -0.127112
 C        -1.090265         1.891791         0.685500
 C        -0.764387         1.578664         3.115933
 C         0.441429         1.098905         2.316492
 H         0.157528        -0.086750        -0.811760
 H        -2.255501        -0.530088         0.963749
 H        -1.495170        -0.708629         2.469765
 H        -3.983134         1.340334         1.035631
 H        -3.212066         3.119651         1.358106
 H        -0.457412         2.797910         0.537681
 H        -0.723382         2.450433         3.695024
 H        -1.088017         0.909733         3.907820
 H         1.036228         2.083427         1.941039
 H         1.088162         0.326103         2.685530
