19
Iteration:   316
 O         0.544604        -0.215373         0.123156
 C        -0.284563         0.541168         0.933300
 C        -1.452773        -0.086836         1.561049
 C        -1.817978         1.366635         1.967091
 C        -3.046319         1.984626         1.310793
 O        -2.432091         1.944661        -0.034686
 C        -1.118565         1.880357         0.698758
 C        -0.821792         1.774557         3.028830
 C         0.335141         1.094767         2.340132
 H         1.480179         0.068227         0.382972
 H        -2.289748        -0.580768         1.009881
 H        -1.192085        -0.856049         2.250539
 H        -4.011015         1.584732         1.436298
 H        -3.148998         3.006893         1.647689
 H        -0.590494         2.791163         0.507660
 H        -0.656247         2.888518         3.075411
 H        -0.957402         1.409430         3.999012
 H         1.299756         1.633266         2.268519
 H         0.572736         0.108963         2.832141
