19
Iteration:  4358
 O         0.537088        -0.120278         0.081196
 C        -0.324960         0.455527         0.944026
 C        -1.721806        -0.077342         1.447873
 C        -1.905588         1.355996         1.959007
 C        -2.932364         2.106529         1.298801
 O        -2.175005         2.175285         0.051356
 C        -0.962067         1.829343         0.719898
 C        -0.966325         1.530496         3.092335
 C         0.386965         0.983812         2.337700
 H         0.738282        -0.976318         0.511540
 H        -2.416646        -0.232001         0.642957
 H        -1.875548        -0.836121         2.212452
 H        -4.028816         1.713699         0.968137
 H        -2.855990         3.123945         1.777426
 H         0.042757         2.657299         0.770455
 H        -0.907046         2.622735         3.291084
 H        -1.341961         0.965724         3.934028
 H         0.840511         1.978559         2.168686
 H         0.962758         0.286410         2.914019
