19
Iteration:   922
 O         0.597067        -0.127182         0.099787
 C        -0.348270         0.492001         0.992443
 C        -1.660426        -0.035228         1.640952
 C        -1.829806         1.494336         2.002449
 C        -3.169186         1.895311         1.238124
 O        -2.421388         1.967029         0.025295
 C        -1.014200         1.770254         0.589694
 C        -0.709877         1.721629         3.141280
 C         0.468158         1.155853         2.236583
 H         1.027558        -0.667783         0.743176
 H        -2.367446        -0.387095         0.854365
 H        -1.382363        -0.741070         2.441797
 H        -3.932362         1.124332         1.290449
 H        -3.539838         2.898278         1.431638
 H        -0.563943         2.615667         0.210622
 H        -0.399552         2.759906         3.308211
 H        -0.893042         1.266195         4.053727
 H         1.104519         1.915351         1.821010
 H         1.126807         0.243904         2.655260
