19
Iteration:  3838
 O         0.483854        -0.160567         0.060281
 C        -0.288330         0.562141         1.041290
 C        -1.560718        -0.105658         1.503698
 C        -1.886150         1.379717         1.972246
 C        -2.974113         2.166180         1.196243
 O        -2.161441         2.043473        -0.026477
 C        -1.039594         1.882055         0.792160
 C        -0.909622         1.550727         3.128658
 C         0.363851         0.960337         2.372257
 H        -0.254950        -0.416942        -0.575584
 H        -2.259906        -0.286511         0.667659
 H        -1.662322        -0.905754         2.223326
 H        -4.034538         1.690974         0.981454
 H        -3.173721         3.228423         1.511778
 H        -0.279213         2.772570         0.831729
 H        -0.832355         2.616018         3.382056
 H        -1.029855         0.995589         4.082474
 H         1.155335         1.646942         2.235806
 H         0.592911         0.178507         2.951965
