19
Iteration:  2762charge 0 multiplicity 1
 O         0.549474        -0.173359         0.188560
 C        -0.322313         0.565806         0.998579
 C        -1.594999        -0.003767         1.494574
 C        -1.845530         1.457460         1.978818
 C        -2.976211         2.115409         1.294086
 O        -2.387476         1.867553        -0.076954
 C        -1.029483         1.830321         0.651173
 C        -0.815449         1.552780         3.148981
 C         0.412538         1.069648         2.345106
 H         0.223567         0.126015        -0.714390
 H        -2.295346        -0.255720         0.740054
 H        -1.437281        -0.684862         2.316880
 H        -4.069233         1.672443         1.456671
 H        -2.794079         3.178790         1.414459
 H        -0.469610         2.837948         0.462488
 H        -0.620986         2.453279         3.733576
 H        -1.227053         0.771677         3.795280
 H         0.999152         1.915031         2.179645
 H         0.990173         0.210947         2.807840
