19
Iteration:  1922
 O         0.582647        -0.224480         0.106510
 C        -0.239848         0.576633         0.971975
 C        -1.550889        -0.025640         1.508667
 C        -1.831687         1.456029         1.964777
 C        -3.029054         2.055958         1.333738
 O        -2.399408         1.870644         0.012629
 C        -1.012634         1.842836         0.646190
 C        -0.870751         1.601758         3.132657
 C         0.393620         1.187446         2.309254
 H         0.004390        -0.814083        -0.327378
 H        -2.184312        -0.336631         0.627698
 H        -1.605569        -0.642013         2.465173
 H        -4.111011         1.636766         1.415799
 H        -3.020960         3.112460         1.504372
 H        -0.524993         2.794057         0.433666
 H        -0.910533         2.597057         3.575571
 H        -1.212617         0.872650         3.849723
 H         1.024105         2.027797         2.269910
 H         1.143716         0.460535         2.783395
