19
Iteration:  1790
 O         0.676423        -0.138986         0.161868
 C        -0.307059         0.557799         1.007397
 C        -1.636010        -0.100543         1.613080
 C        -1.834504         1.444783         1.985041
 C        -3.011458         2.083272         1.275151
 O        -2.376930         1.981806        -0.040663
 C        -1.102170         1.724363         0.645498
 C        -0.838695         1.563396         3.129509
 C         0.417717         1.189059         2.246993
 H         0.116520        -0.625422        -0.407099
 H        -2.382321        -0.492079         0.852985
 H        -1.573985        -0.895405         2.423062
 H        -4.012449         1.685582         1.177672
 H        -3.107038         3.176581         1.569823
 H        -0.512696         2.581110         0.386401
 H        -0.775381         2.614625         3.456665
 H        -0.969632         1.035951         4.035915
 H         1.014046         2.074181         1.944615
 H         0.996708         0.207004         2.703162
