19
Iteration:  1462charge 0 multiplicity 1
 O         0.685991        -0.114436         0.166381
 C        -0.368333         0.501825         0.984007
 C        -1.676210        -0.023595         1.614129
 C        -1.880608         1.453053         1.928697
 C        -3.002032         2.067311         1.243450
 O        -2.367853         1.898253        -0.053250
 C        -1.064335         1.845161         0.735116
 C        -0.795991         1.640930         3.101947
 C         0.415368         1.056003         2.268919
 H         0.230955        -0.642894        -0.490055
 H        -2.402785        -0.399404         0.842258
 H        -1.625784        -0.756972         2.451397
 H        -3.932506         1.486147         1.356196
 H        -3.089817         3.101398         1.558032
 H        -0.525421         2.846242         0.635140
 H        -0.499306         2.653151         3.538678
 H        -1.093211         1.101076         4.029941
 H         1.133024         1.814519         1.921976
 H         1.017182         0.159342         2.742398
