19
Iteration:  3138
 O         0.533918        -0.144254        -0.017019
 C        -0.231458         0.646697         1.045905
 C        -1.606993        -0.037494         1.580021
 C        -1.848225         1.471032         1.981418
 C        -2.959042         2.171549         1.257375
 O        -2.320041         1.782886        -0.049805
 C        -1.070480         1.872128         0.729528
 C        -0.876474         1.558725         3.152103
 C         0.412087         1.050241         2.325032
 H        -0.056880        -0.783092        -0.416145
 H        -2.235326        -0.529172         0.859935
 H        -1.494705        -0.621773         2.485944
 H        -4.033361         1.811814         1.137598
 H        -2.903852         3.205354         1.564611
 H        -0.547229         2.802463         0.744311
 H        -0.821746         2.607939         3.539841
 H        -1.207780         0.958731         3.970292
 H         1.278758         1.765083         2.250761
 H         0.606821         0.159687         2.980292
