19
Iteration:  2295
 O         0.503804        -0.056984         0.081921
 C        -0.331809         0.527173         0.986760
 C        -1.575579        -0.074272         1.663569
 C        -1.894220         1.427864         2.010046
 C        -3.048759         2.125616         1.242671
 O        -2.312833         1.873524        -0.107513
 C        -1.041556         1.800765         0.672557
 C        -0.792542         1.602778         3.182748
 C         0.441435         1.022634         2.305998
 H         0.063451        -0.087602        -0.831857
 H        -2.298171        -0.598093         0.947618
 H        -1.433659        -0.760196         2.571706
 H        -4.009073         1.614807         1.065046
 H        -2.959237         3.165763         1.326581
 H        -0.517723         2.696304         0.713916
 H        -0.696641         2.666763         3.478303
 H        -0.738219         1.112784         4.197130
 H         1.261652         1.959092         2.156760
 H         1.019998         0.362050         2.921567
