19
Iteration:  1762charge 0 multiplicity 1
 O         0.717467        -0.210509         0.230322
 C        -0.279539         0.570043         0.986106
 C        -1.594020        -0.103798         1.462709
 C        -1.800060         1.529702         1.916176
 C        -3.069753         2.098444         1.368481
 O        -2.461325         1.890026         0.056120
 C        -1.092826         1.835946         0.677547
 C        -0.859982         1.695297         2.986722
 C         0.402397         1.000392         2.328463
 H         0.352271        -0.159228        -0.638343
 H        -2.216835        -0.443946         0.657833
 H        -1.504694        -0.853649         2.220224
 H        -4.008497         1.527135         1.378361
 H        -3.017241         3.180157         1.635224
 H        -0.581564         2.808042         0.396089
 H        -0.698334         2.797102         3.049908
 H        -1.091177         1.334171         4.045723
 H         1.295825         1.625912         2.065406
 H         0.732932         0.185616         2.812667
