19
Iteration:  3049
 O         0.622009        -0.230128         0.204958
 C        -0.255759         0.560746         0.920368
 C        -1.560967         0.009547         1.484396
 C        -1.769792         1.452201         1.950450
 C        -3.024809         2.079136         1.390355
 O        -2.466563         1.959068        -0.013596
 C        -1.067498         1.808567         0.625644
 C        -0.859039         1.632795         3.082547
 C         0.374791         1.019562         2.353241
 H         0.523438        -0.026498        -0.704840
 H        -2.196334        -0.214791         0.635227
 H        -1.589418        -0.742070         2.240549
 H        -4.069029         1.637456         1.344038
 H        -3.060094         3.133510         1.757728
 H        -0.500239         2.785234         0.336038
 H        -0.608166         2.688780         3.389141
 H        -1.162496         1.096063         3.993646
 H         1.279043         1.609970         2.352420
 H         0.686817         0.005482         2.825599
