19
Iteration:  4486charge 0 multiplicity 1
 O         0.525981        -0.282168         0.018623
 C        -0.272645         0.555640         0.972784
 C        -1.612869        -0.065937         1.477285
 C        -1.876816         1.430467         1.962345
 C        -2.970091         2.093958         1.237496
 O        -2.242880         2.253581         0.015543
 C        -0.974772         1.919966         0.688988
 C        -0.984047         1.495038         3.209025
 C         0.288032         0.954458         2.360648
 H         0.958899        -0.977250         0.577390
 H        -2.293894        -0.455344         0.701751
 H        -1.432681        -0.901976         2.272062
 H        -3.968584         1.604651         1.151045
 H        -2.947872         3.194843         1.614550
 H        -0.221818         2.618795         0.529171
 H        -0.754944         2.623541         3.434446
 H        -1.137468         0.726180         4.036613
 H         1.092251         1.780375         2.253688
 H         0.844781         0.043004         2.883758
