19
Iteration:  2668charge 0 multiplicity 1
 O         0.712805        -0.228761         0.158677
 C        -0.203991         0.545623         1.009911
 C        -1.740999        -0.026229         1.553181
 C        -1.864287         1.494767         1.927453
 C        -3.089157         2.164501         1.302231
 O        -2.389385         1.926987         0.017331
 C        -1.068633         1.839047         0.645280
 C        -0.836574         1.555945         3.085034
 C         0.444028         1.037592         2.310179
 H         0.258103        -0.166725        -0.724701
 H        -2.411821        -0.287542         0.707071
 H        -1.710220        -0.708013         2.458388
 H        -3.970105         1.679899         1.447374
 H        -3.029923         3.298883         1.450915
 H        -0.530857         2.781761         0.525097
 H        -0.644437         2.457543         3.709247
 H        -1.056616         0.712517         3.806360
 H         1.103955         1.937476         2.043204
 H         0.971135         0.174651         2.677284
