19
Iteration:  2985
 O         0.504465        -0.079280         0.100132
 C        -0.310892         0.545509         1.012901
 C        -1.655538        -0.047457         1.614533
 C        -1.874796         1.423891         1.942557
 C        -3.060195         1.992488         1.234260
 O        -2.259736         1.937933        -0.045737
 C        -1.010666         1.956009         0.737684
 C        -0.750910         1.629329         3.091378
 C         0.405266         0.970511         2.322337
 H         0.067003        -0.729388        -0.472189
 H        -2.360781        -0.590891         0.968964
 H        -1.469434        -0.667482         2.529390
 H        -4.091199         1.403480         1.124189
 H        -3.282516         3.035404         1.609832
 H        -0.370722         2.938341         0.556477
 H        -0.522107         2.671975         3.261126
 H        -1.003569         1.125260         3.968249
 H         1.226408         1.695496         2.306519
 H         0.821165         0.131487         2.719822
