19
Iteration:  3999charge 0 multiplicity 1
 O         0.483726        -0.057757        -0.019866
 C        -0.281191         0.536242         1.003019
 C        -1.651217         0.086352         1.422929
 C        -1.833491         1.448329         1.977115
 C        -2.967450         2.122642         1.234318
 O        -2.184841         1.939145        -0.017863
 C        -0.947018         1.888739         0.782296
 C        -0.930523         1.495471         3.155584
 C         0.281365         0.874510         2.447618
 H         0.785263        -1.006980         0.137174
 H        -2.255448        -0.030018         0.478687
 H        -1.818101        -0.794599         2.095970
 H        -3.966174         1.675501         1.260716
 H        -3.158302         3.233929         1.305934
 H        -0.273602         2.860415         0.863279
 H        -0.727470         2.544729         3.527053
 H        -1.317777         0.949894         3.994772
 H         1.211888         1.516884         2.536200
 H         0.529850        -0.082517         3.033791
