19
Iteration:  4115
 O         0.441162        -0.196319         0.087276
 C        -0.300666         0.544404         0.988815
 C        -1.616455        -0.029427         1.492133
 C        -1.873063         1.455827         1.979343
 C        -2.995988         2.145037         1.160567
 O        -2.187604         2.073077        -0.093596
 C        -0.982923         1.939724         0.800709
 C        -0.878449         1.498865         3.186444
 C         0.296543         0.845081         2.343596
 H         1.340846         0.216936         0.036523
 H        -2.420603        -0.355975         0.826325
 H        -1.484150        -0.746782         2.292080
 H        -3.968784         1.598400         1.256396
 H        -3.190854         3.106582         1.448131
 H        -0.453729         2.822838         0.803577
 H        -0.595882         2.444555         3.692872
 H        -1.302012         0.826278         3.957003
 H         1.243510         1.614110         2.368329
 H         0.817181         0.042651         2.903051
