19
Iteration:  1137
 O         0.548222        -0.077852         0.021128
 C        -0.237601         0.551553         0.983754
 C        -1.514061        -0.040546         1.529619
 C        -1.808752         1.496295         2.035413
 C        -3.160119         2.018887         1.286723
 O        -2.401071         1.786843        -0.003999
 C        -1.067439         1.809562         0.689749
 C        -0.793702         1.821947         3.061796
 C         0.381349         0.996861         2.397640
 H         0.400806        -0.984588         0.223491
 H        -2.169367        -0.432498         0.721052
 H        -1.361009        -0.851173         2.238981
 H        -4.030664         1.396312         1.408140
 H        -3.267084         3.118846         1.239348
 H        -0.451136         2.797439         0.532136
 H        -0.519005         2.878495         3.098483
 H        -0.913258         1.568530         4.216043
 H         1.432315         1.605273         2.266958
 H         0.757482         0.096798         2.873174
