19
Iteration:   429charge 0 multiplicity 1
 O         0.479608        -0.137003        -0.037125
 C        -0.262875         0.564076         0.983194
 C        -1.529835        -0.036885         1.458304
 C        -1.860525         1.373171         1.933882
 C        -3.002231         1.966962         1.329089
 O        -2.342780         1.851242         0.071578
 C        -0.979942         1.881627         0.712142
 C        -0.861152         1.838506         3.032126
 C         0.307713         1.048640         2.449834
 H         0.867897        -0.868883         0.445597
 H        -2.060956        -0.389141         0.603677
 H        -1.367543        -0.757070         2.292787
 H        -3.924281         1.359622         1.449625
 H        -3.294192         2.937626         1.675640
 H        -0.502438         2.882916         0.535207
 H        -0.581809         2.890187         3.041836
 H        -1.129529         1.544156         4.094420
 H         1.235632         1.607964         2.347706
 H         0.663405         0.122744         3.082562
