19
Iteration:  2705
 O         0.565783        -0.125882         0.105439
 C        -0.316197         0.613660         1.033069
 C        -1.603002        -0.142689         1.508688
 C        -1.850990         1.338781         1.994349
 C        -3.028790         2.016597         1.255160
 O        -2.304710         2.038644        -0.003525
 C        -1.066666         1.848601         0.658823
 C        -0.742597         1.780114         3.076621
 C         0.376204         0.960043         2.381346
 H        -0.102683        -0.611071        -0.324487
 H        -2.288654        -0.515128         0.761356
 H        -1.481194        -0.960076         2.159122
 H        -4.060527         1.456457         0.996134
 H        -3.495872         2.982970         1.642160
 H        -0.350911         2.831130         0.592713
 H        -0.476544         2.835071         3.240013
 H        -1.063510         1.440406         4.078810
 H         1.317221         1.367338         2.392183
 H         0.451321        -0.014857         2.847204
