19
Iteration:  2040charge 0 multiplicity 1
 O         0.618323        -0.129099         0.169413
 C        -0.266748         0.558834         0.984668
 C        -1.575257        -0.005275         1.562232
 C        -1.756605         1.531648         2.053210
 C        -3.078046         2.093080         1.271450
 O        -2.391112         1.849752        -0.070459
 C        -1.106286         1.834425         0.655669
 C        -0.820665         1.559911         3.172748
 C         0.359396         1.044925         2.266237
 H         0.022634        -0.559473        -0.552392
 H        -2.364948        -0.216525         0.821662
 H        -1.515973        -0.755104         2.376784
 H        -3.997153         1.480072         1.287264
 H        -3.204705         3.178062         1.126079
 H        -0.418056         2.784647         0.565037
 H        -0.622651         2.560233         3.559915
 H        -0.874739         0.860189         4.024417
 H         1.105280         1.763865         1.916776
 H         1.001527         0.353391         2.613639
