19
Iteration:   203
 O         0.697739        -0.094812         0.258876
 C        -0.300607         0.503651         0.987941
 C        -1.626897        -0.069592         1.554755
 C        -1.823623         1.461494         1.951836
 C        -3.103692         1.966231         1.334253
 O        -2.422814         1.907727         0.088944
 C        -1.047714         1.749004         0.594409
 C        -0.745953         1.783341         2.988336
 C         0.339620         1.052761         2.234103
 H         0.724905         0.142481        -0.712539
 H        -2.432209        -0.433442         0.972231
 H        -1.629790        -0.875069         2.352664
 H        -3.986709         1.302592         1.391392
 H        -3.543710         2.921929         1.493688
 H        -0.512259         2.618256         0.301058
 H        -0.544122         2.792204         3.228478
 H        -0.908917         1.376592         3.999561
 H         1.057776         1.832202         1.817651
 H         0.919313         0.340688         2.764714
