19
Iteration:   629charge 0 multiplicity 1
 O         0.614236        -0.283798         0.104514
 C        -0.245914         0.558396         0.963427
 C        -1.609816        -0.027924         1.495942
 C        -1.807751         1.486451         1.951281
 C        -3.072615         2.045283         1.378229
 O        -2.433525         1.906377         0.033578
 C        -1.063564         1.855344         0.596326
 C        -0.893915         1.650808         3.120180
 C         0.457035         1.078293         2.343824
 H         1.303839         0.347751        -0.169751
 H        -2.320942        -0.436439         0.807827
 H        -1.554583        -0.718857         2.312176
 H        -3.980013         1.431952         1.331070
 H        -3.231488         3.119467         1.410905
 H        -0.591765         2.696434         0.265105
 H        -0.752832         2.733485         3.412196
 H        -1.175152         1.037789         3.999949
 H         1.137992         2.053954         2.172242
 H         0.942869         0.393790         2.970446
