19
Iteration:  1593charge 0 multiplicity 1
 O         0.581140        -0.173482         0.066888
 C        -0.250741         0.550556         0.967069
 C        -1.579907        -0.100390         1.544689
 C        -1.873839         1.455917         1.989116
 C        -3.026093         2.050835         1.319172
 O        -2.323906         1.869922        -0.038298
 C        -1.084754         1.840239         0.695374
 C        -0.837364         1.772314         3.064052
 C         0.385410         1.015068         2.403716
 H         0.040220        -0.647103        -0.621630
 H        -2.266079        -0.339119         0.722876
 H        -1.470028        -0.806871         2.410432
 H        -4.007962         1.694689         1.475323
 H        -2.985649         3.240822         1.563203
 H        -0.568511         2.823293         0.698664
 H        -0.700090         2.908431         2.984257
 H        -1.100288         1.281732         4.022218
 H         1.076523         1.742702         2.256375
 H         0.911491         0.328465         3.142110
