19
Iteration:  1198
 O         0.604599        -0.184143         0.116287
 C        -0.292770         0.483154         0.992702
 C        -1.604999        -0.057856         1.664149
 C        -1.833682         1.425912         1.964227
 C        -3.065586         2.019643         1.257183
 O        -2.415215         1.927933        -0.033529
 C        -1.117359         1.816667         0.659278
 C        -0.789078         1.650055         3.099593
 C         0.430508         1.192291         2.241931
 H         1.498884        -0.137724         0.352097
 H        -2.414685        -0.261496         0.986573
 H        -1.607278        -0.769063         2.551869
 H        -4.132237         1.624672         1.353736
 H        -3.082691         3.138057         1.281198
 H        -0.529472         2.748394         0.678735
 H        -0.716342         2.630803         3.585299
 H        -0.886801         0.858908         3.763314
 H         0.928251         1.921125         1.742000
 H         1.016664         0.373234         2.739923
