19
Iteration:  4146charge 0 multiplicity 1
 O         0.567694        -0.110693         0.060931
 C        -0.273438         0.391424         1.015761
 C        -1.733746        -0.091196         1.422286
 C        -1.913852         1.351541         1.943036
 C        -2.952704         2.175822         1.263289
 O        -2.196450         2.115505        -0.020225
 C        -0.973083         1.798611         0.788421
 C        -0.884613         1.654885         3.064745
 C         0.306199         0.854193         2.488566
 H         0.716163         0.584728        -0.591852
 H        -2.512869        -0.242279         0.684025
 H        -1.778017        -0.928507         2.108608
 H        -4.038874         1.638180         1.287113
 H        -2.923355         3.268855         1.572560
 H        -0.355979         2.743540         0.784642
 H        -0.595783         2.665945         3.120421
 H        -1.148627         1.314318         4.082285
 H         1.078107         1.612932         2.292880
 H         0.561290         0.027825         3.086077
