19
Iteration:  2268
 O         0.587643        -0.138669         0.083489
 C        -0.287582         0.548436         0.969612
 C        -1.586508         0.001473         1.516962
 C        -1.833265         1.528663         1.929051
 C        -2.965298         2.128976         1.332667
 O        -2.409213         1.737718         0.083943
 C        -0.999740         1.821210         0.659097
 C        -0.871609         1.602313         3.088425
 C         0.373827         1.058062         2.345562
 H         0.138971        -0.211806        -0.808249
 H        -2.101757        -0.302457         0.651241
 H        -1.758848        -0.683148         2.302085
 H        -3.974061         1.724843         1.330632
 H        -2.869189         3.306490         1.404031
 H        -0.552633         2.870469         0.535278
 H        -0.711505         2.601874         3.519912
 H        -1.058639         0.999121         3.973291
 H         0.945937         1.890221         2.237963
 H         0.965039         0.331002         2.993592
