19
Iteration:  3416
 O         0.587414         0.047163         0.009189
 C        -0.296741         0.524237         0.964374
 C        -1.604142        -0.108073         1.682238
 C        -1.812071         1.434995         2.025475
 C        -3.019680         2.142067         1.244605
 O        -2.311201         1.948225        -0.080794
 C        -1.088153         1.773248         0.656090
 C        -0.796816         1.674642         3.115111
 C         0.277880         0.878770         2.349799
 H         0.801499        -0.873060         0.317545
 H        -2.219365        -0.492257         0.839854
 H        -1.568345        -0.860701         2.550287
 H        -4.023540         1.561385         1.233969
 H        -3.126890         3.083555         1.549965
 H        -0.483644         2.610018         0.728341
 H        -0.553191         2.706377         3.211125
 H        -1.094037         1.376115         4.174461
 H         1.249351         1.609597         2.167166
 H         0.509708        -0.085682         2.822083
