19
Iteration:  1772
 O         0.699450        -0.169233         0.197325
 C        -0.284010         0.445967         0.964092
 C        -1.588526        -0.070476         1.521900
 C        -1.835770         1.371331         1.922608
 C        -3.007510         2.101461         1.359629
 O        -2.461281         1.933304        -0.019289
 C        -1.086245         1.850573         0.608578
 C        -0.827166         1.740378         3.104751
 C         0.375357         1.046955         2.337507
 H         0.516676        -0.414349        -0.677059
 H        -2.302055        -0.311129         0.741872
 H        -1.575957        -0.850129         2.234657
 H        -3.992247         1.695515         1.560171
 H        -3.206244         3.229551         1.541814
 H        -0.564429         2.845714         0.514637
 H        -0.611926         2.788515         3.408407
 H        -1.048742         1.157306         4.071357
 H         0.996319         1.847566         1.942241
 H         0.860969         0.336910         2.899230
