19
Iteration:  1096
 O         0.617617        -0.092451         0.150139
 C        -0.311662         0.507572         1.028892
 C        -1.557597        -0.038380         1.690177
 C        -1.843781         1.489658         1.933073
 C        -3.093879         2.073296         1.307045
 O        -2.390730         1.808956        -0.047307
 C        -1.082527         1.737868         0.646006
 C        -0.772717         1.669079         3.094596
 C         0.393658         1.097560         2.231916
 H         0.531290         0.091331        -0.847019
 H        -2.364983        -0.443792         0.984129
 H        -1.342915        -0.770545         2.516618
 H        -4.095205         1.651250         1.322571
 H        -3.272454         3.154706         1.538839
 H        -0.529964         2.677137         0.383437
 H        -0.587782         2.748340         3.324635
 H        -1.005860         1.169325         4.042634
 H         1.085881         1.803869         1.956844
 H         1.007858         0.397536         2.866144
