19
Iteration:  2051
 O         0.608203        -0.171743         0.186953
 C        -0.332905         0.554735         0.976240
 C        -1.622629        -0.000909         1.599434
 C        -1.854027         1.535726         1.961312
 C        -3.083027         1.997928         1.221661
 O        -2.333564         1.939095        -0.014463
 C        -1.062885         1.845262         0.691315
 C        -0.759470         1.571906         3.123216
 C         0.429459         1.090578         2.245071
 H         0.153722        -0.709598        -0.511492
 H        -2.352600        -0.292951         0.824144
 H        -1.563014        -0.803876         2.356005
 H        -3.891359         1.319273         1.416105
 H        -3.429356         2.977186         1.577906
 H        -0.476284         2.789531         0.388174
 H        -0.499641         2.474177         3.665651
 H        -1.031630         0.791872         3.877350
 H         0.951598         2.034696         2.010760
 H         1.008758         0.393770         2.730487
