19
Iteration:  1711charge 0 multiplicity 1
 O         0.542963        -0.059910         0.076610
 C        -0.300521         0.530666         0.975455
 C        -1.617193        -0.014257         1.676118
 C        -1.808876         1.489296         1.937899
 C        -3.102558         2.025170         1.265134
 O        -2.277005         1.882090        -0.007948
 C        -1.000978         1.773428         0.690175
 C        -0.839627         1.709806         3.084136
 C         0.379351         1.007730         2.338977
 H         0.074844        -0.573113        -0.548841
 H        -2.225416        -0.387085         0.843111
 H        -1.557549        -0.730546         2.570688
 H        -3.957343         1.237134         1.249139
 H        -3.451210         3.027894         1.347518
 H        -0.482951         2.716312         0.548660
 H        -0.609204         2.753741         3.282030
 H        -0.868824         1.135990         3.972966
 H         1.243713         1.632038         1.949077
 H         0.900524         0.165900         2.985649
