19
Iteration:  4743
 O         0.454522        -0.270980         0.145309
 C        -0.345771         0.558686         0.938885
 C        -1.568827        -0.073571         1.381536
 C        -1.863944         1.397156         1.995674
 C        -2.999753         2.097532         1.223083
 O        -2.153677         2.161124         0.003385
 C        -0.984371         1.967539         0.742726
 C        -0.904938         1.537688         3.250029
 C         0.274912         0.910122         2.371163
 H         0.909693         0.044190        -0.644965
 H        -2.201854        -0.403036         0.613789
 H        -1.453387        -0.864510         2.016843
 H        -3.977074         1.664352         0.882433
 H        -3.101861         3.093550         1.637730
 H        -0.359127         2.728785         0.866473
 H        -0.689468         2.557389         3.249807
 H        -1.196187         1.058385         4.179465
 H         1.138918         1.561578         2.273282
 H         0.662045        -0.031595         2.626899
