19
Iteration:  3402
 O         0.563045        -0.000085         0.052571
 C        -0.321380         0.524561         1.029030
 C        -1.648451        -0.082332         1.526390
 C        -1.859439         1.416125         1.926397
 C        -2.978773         2.102725         1.278665
 O        -2.350415         1.893662        -0.020754
 C        -1.040215         1.830459         0.700322
 C        -0.850605         1.663878         3.081481
 C         0.436599         0.945607         2.419749
 H         0.621289        -0.938302        -0.106659
 H        -2.456819        -0.425182         0.865622
 H        -1.473680        -0.738907         2.350818
 H        -4.012851         1.776015         1.340559
 H        -3.022652         3.247944         1.466386
 H        -0.524909         2.746061         0.487098
 H        -0.627952         2.792381         3.128619
 H        -1.103101         1.169048         4.033348
 H         1.332397         1.607592         2.278946
 H         0.846087         0.047955         3.009956
