19
Iteration:  2445charge 0 multiplicity 1
 O         0.508907        -0.210593         0.066427
 C        -0.243447         0.563865         0.961114
 C        -1.509286        -0.035293         1.542924
 C        -1.869715         1.423346         2.016249
 C        -3.090100         1.974704         1.235246
 O        -2.286307         1.953978        -0.043268
 C        -1.062905         1.932853         0.716698
 C        -0.780938         1.775055         3.176821
 C         0.350165         0.948242         2.376736
 H         0.004425        -0.150962        -0.817754
 H        -2.306761        -0.351595         0.840136
 H        -1.220870        -0.861907         2.200307
 H        -4.003526         1.451443         1.339788
 H        -3.541467         2.985158         1.491463
 H        -0.630402         3.028004         0.544618
 H        -0.338338         2.778908         3.241265
 H        -0.976660         1.230215         4.107214
 H         1.273244         1.409131         2.441699
 H         0.492111        -0.015470         2.843668
