19
Iteration:  1143
 O         0.522631        -0.117279         0.016680
 C        -0.211126         0.633555         0.993766
 C        -1.485545        -0.078511         1.520374
 C        -1.842301         1.466993         2.026656
 C        -3.082070         2.020353         1.306959
 O        -2.397370         1.808456        -0.027402
 C        -1.090956         1.808774         0.729669
 C        -0.826110         1.860219         3.071176
 C         0.408971         1.000375         2.370771
 H         0.575227        -1.050570         0.271458
 H        -2.171264        -0.329676         0.725694
 H        -1.551510        -0.834161         2.345370
 H        -3.984691         1.359537         1.512029
 H        -3.456348         3.056382         1.244650
 H        -0.522904         2.662960         0.516036
 H        -0.603326         2.938381         3.159468
 H        -0.999892         1.506147         4.033699
 H         1.342431         1.474382         2.261330
 H         0.750575         0.011251         2.776933
