19
Iteration:   568
 O         0.586118        -0.080894         0.046517
 C        -0.289684         0.453414         1.013443
 C        -1.696924        -0.063126         1.633808
 C        -1.832800         1.494176         2.021055
 C        -3.070803         1.949926         1.210760
 O        -2.289082         1.936862        -0.034199
 C        -1.086218         1.709291         0.745757
 C        -0.762833         1.740897         3.107335
 C         0.368882         1.054136         2.251163
 H         0.958923         0.664534        -0.419960
 H        -2.576831        -0.294929         1.038754
 H        -1.525880        -0.723180         2.530575
 H        -3.913291         1.265017         1.363839
 H        -3.524925         2.968991         1.396308
 H        -0.372908         2.646319         0.640451
 H        -0.527369         2.764564         3.405106
 H        -0.967167         1.212532         4.017256
 H         1.098125         1.743496         1.944103
 H         0.877619         0.376715         2.994101
