19
Iteration:  4588
 O         0.447262        -0.078381         0.021020
 C        -0.328055         0.518864         1.044549
 C        -1.753497        -0.072979         1.433368
 C        -1.871872         1.410666         1.978024
 C        -2.911011         2.152075         1.215235
 O        -2.217594         2.090771        -0.115482
 C        -1.003154         1.899043         0.766298
 C        -0.843416         1.500059         3.200149
 C         0.415563         0.897876         2.444913
 H         0.860406        -0.892349         0.347482
 H        -2.336171        -0.247960         0.514881
 H        -1.760500        -0.878274         2.119445
 H        -3.907834         1.585345         1.115035
 H        -3.022126         3.230780         1.557709
 H        -0.330455         2.763335         0.708431
 H        -0.560912         2.493716         3.720957
 H        -1.299382         0.876693         4.018532
 H         1.257628         1.626514         2.366314
 H         0.802033        -0.022133         2.954453
