19
Iteration:  3165charge 0 multiplicity 1
 O         0.622092        -0.090257         0.184304
 C        -0.344637         0.536588         1.047462
 C        -1.673864         0.000292         1.496231
 C        -1.792739         1.516087         1.998868
 C        -3.061919         2.093937         1.248781
 O        -2.358534         1.912017        -0.001132
 C        -1.065788         1.786790         0.610478
 C        -0.719707         1.594776         3.177350
 C         0.365094         0.954315         2.277740
 H         0.255412        -0.399693        -0.670077
 H        -2.298088        -0.362130         0.628550
 H        -1.579290        -0.783768         2.284906
 H        -3.962402         1.429937         1.187163
 H        -3.390921         3.182623         1.489745
 H        -0.316233         2.722926         0.488336
 H        -0.530374         2.633489         3.372782
 H        -1.062513         1.109348         4.121330
 H         1.114087         1.678821         1.963798
 H         0.912639         0.238763         2.838289
