19
Iteration:  3674charge 0 multiplicity 1
 O         0.563571        -0.220928         0.159998
 C        -0.284906         0.593480         0.934023
 C        -1.681245         0.006854         1.455349
 C        -1.805460         1.481588         1.982526
 C        -3.003543         2.074591         1.294761
 O        -2.339158         1.978521        -0.064333
 C        -1.066822         1.896684         0.692417
 C        -0.830544         1.629567         3.140708
 C         0.383088         0.875563         2.389799
 H         1.017675         0.384954        -0.409428
 H        -2.373067        -0.212258         0.667652
 H        -1.617054        -0.887521         2.076153
 H        -3.898763         1.493722         1.317592
 H        -3.279011         3.134982         1.583601
 H        -0.540529         2.749704         0.651620
 H        -0.487116         2.647040         3.482409
 H        -0.904549         1.012707         4.022508
 H         1.409087         1.381922         2.300908
 H         0.387811        -0.136572         3.011504
