19
Iteration:    64charge 0 multiplicity 1
 O         0.565721        -0.231554         0.193676
 C        -0.263276         0.608419         0.990200
 C        -1.495994        -0.093884         1.422986
 C        -1.838907         1.436176         1.956068
 C        -3.099054         1.907463         1.434988
 O        -2.432295         1.804367         0.078769
 C        -1.053319         1.750548         0.568014
 C        -0.832376         1.891718         3.014393
 C         0.431672         1.229214         2.321943
 H         0.877193         0.181817        -0.588363
 H        -2.076646        -0.461001         0.649721
 H        -1.377775        -0.831758         2.209835
 H        -4.026933         1.402531         1.475452
 H        -3.408403         2.994695         1.656872
 H        -0.508942         2.636141         0.204893
 H        -1.080639         2.961280         3.421895
 H        -0.918246         1.389549         3.956059
 H         1.385180         1.815095         2.143637
 H         0.647417         0.371852         2.925151
