19
Iteration:  3269
 O         0.604370        -0.045302         0.063690
 C        -0.285577         0.538456         1.012392
 C        -1.639689         0.007213         1.565266
 C        -1.791504         1.572166         1.999856
 C        -3.059934         2.126258         1.167752
 O        -2.383122         1.821406        -0.055729
 C        -1.090385         1.840041         0.700177
 C        -0.767024         1.557432         3.216532
 C         0.405427         0.947350         2.347610
 H         0.254287        -0.694742        -0.499440
 H        -2.368386        -0.369674         0.875643
 H        -1.503491        -0.540113         2.481711
 H        -3.989960         1.625821         1.287542
 H        -3.237639         3.202187         1.174668
 H        -0.495148         2.714995         0.473329
 H        -0.514887         2.622025         3.750126
 H        -1.218671         0.814839         3.925369
 H         1.298996         1.664151         2.410312
 H         0.815785        -0.129161         2.787468
