19
Iteration:   811
 O         0.491720        -0.125347         0.093969
 C        -0.267835         0.564911         1.008094
 C        -1.486327        -0.025983         1.580549
 C        -1.843714         1.457987         2.002426
 C        -3.070909         1.988879         1.225154
 O        -2.388200         1.872324        -0.088713
 C        -1.079626         1.860832         0.721594
 C        -0.789310         1.761101         3.176606
 C         0.433693         1.007553         2.271240
 H         0.203340        -1.084602         0.005136
 H        -2.208251        -0.369853         0.845580
 H        -1.281708        -0.807613         2.411834
 H        -3.928131         1.342851         1.339523
 H        -3.217011         3.026549         1.445424
 H        -0.735153         2.863292         0.464217
 H        -0.614935         2.818292         3.303426
 H        -1.075578         1.243587         4.078886
 H         1.183185         1.753592         2.172485
 H         1.098434         0.272446         2.928199
