19
Iteration:  2729charge 0 multiplicity 1
 O         0.595495        -0.105332         0.043904
 C        -0.268415         0.486557         1.049825
 C        -1.607543        -0.007950         1.563287
 C        -1.882659         1.456972         1.959041
 C        -3.108869         1.956312         1.235297
 O        -2.284125         2.020610        -0.034245
 C        -1.028591         1.885236         0.804576
 C        -0.860509         1.769188         3.068943
 C         0.421806         0.847106         2.341274
 H         0.062425        -0.674987        -0.605259
 H        -2.350032        -0.455062         0.956771
 H        -1.488246        -0.707065         2.392890
 H        -4.210514         1.440911         1.388178
 H        -3.430411         2.968774         1.371431
 H        -0.299990         2.804994         0.694740
 H        -0.425464         2.747733         3.292558
 H        -1.104857         1.377025         4.070028
 H         1.156054         1.576455         2.092105
 H         0.965619        -0.048048         2.835497
