19
Iteration:  4444charge 0 multiplicity 1
 O         0.569146        -0.019545         0.010725
 C        -0.335164         0.437383         0.939226
 C        -1.758323        -0.038079         1.462679
 C        -1.910539         1.373720         2.069556
 C        -2.922353         2.235427         1.210936
 O        -2.225024         2.009752        -0.036463
 C        -0.927897         1.821439         0.777674
 C        -0.923356         1.545228         3.225149
 C         0.341917         0.895238         2.346043
 H         0.967206        -0.836827         0.258544
 H        -2.377694        -0.230966         0.591654
 H        -1.861652        -0.761480         2.287812
 H        -3.897156         1.735506         1.087686
 H        -2.868157         3.280960         1.569645
 H        -0.311102         2.811763         0.687287
 H        -0.784090         2.672450         3.282203
 H        -1.206727         1.024785         4.141265
 H         1.184681         1.609455         2.147127
 H         0.712115         0.002146         2.890093
