19
Iteration:    51
 O         0.581360        -0.282662         0.099391
 C        -0.215501         0.499228         0.973045
 C        -1.557215        -0.047894         1.554075
 C        -1.775375         1.413858         1.962359
 C        -3.084071         1.927647         1.358139
 O        -2.449735         1.812667         0.046095
 C        -1.096631         1.804811         0.636444
 C        -0.871911         1.812714         3.062349
 C         0.415200         1.307248         2.312563
 H         1.258482         0.371953        -0.280084
 H        -2.203128        -0.167163         0.689412
 H        -1.636772        -0.905667         2.262462
 H        -3.884613         1.182266         1.461084
 H        -3.349824         2.996841         1.604508
 H        -0.539151         2.803845         0.434013
 H        -0.788941         2.949693         3.185554
 H        -1.077175         1.285521         4.054147
 H         1.118135         2.131440         1.965779
 H         1.051931         0.634480         2.901562
