19
Iteration:  2486
 O         0.681568        -0.103661         0.152564
 C        -0.295968         0.499919         1.029268
 C        -1.664059        -0.070500         1.556059
 C        -1.832118         1.440216         1.983481
 C        -3.092292         2.098502         1.326462
 O        -2.374244         2.017067        -0.022576
 C        -1.059969         1.824059         0.621355
 C        -0.771875         1.633191         3.079856
 C         0.388753         0.975555         2.304363
 H         0.205301        -0.637190        -0.447403
 H        -2.259149        -0.235578         0.682607
 H        -1.704287        -0.828853         2.300344
 H        -4.032084         1.397111         1.196210
 H        -3.385335         3.114360         1.572601
 H        -0.460121         2.644741         0.583001
 H        -0.678244         2.711152         3.246898
 H        -0.963457         1.045962         3.954488
 H         1.202658         1.652355         1.977445
 H         0.927078         0.106744         2.959323
