19
Iteration:  4205
 O         0.596508        -0.194680         0.155669
 C        -0.250084         0.482967         0.981642
 C        -1.759497         0.074812         1.436877
 C        -1.851510         1.485874         1.934687
 C        -2.971831         2.174248         1.251767
 O        -2.242254         2.070714        -0.059110
 C        -1.018929         1.969371         0.728915
 C        -0.907646         1.415820         3.196175
 C         0.371695         0.918669         2.361637
 H         0.407364        -1.101611        -0.001097
 H        -2.455898         0.085928         0.595059
 H        -1.966524        -0.759041         2.126117
 H        -3.849376         1.501196         1.189781
 H        -3.336959         3.101078         1.455037
 H        -0.524873         2.837287         0.695228
 H        -0.652291         2.193118         4.003309
 H        -1.210946         0.537623         3.769708
 H         1.319897         1.655353         2.117222
 H         1.095282         0.073436         2.714743
