19
Iteration:  3020charge 0 multiplicity 1
 O         0.580577        -0.091207         0.068673
 C        -0.273152         0.476278         0.971655
 C        -1.620210        -0.098873         1.543911
 C        -1.814291         1.464169         1.962449
 C        -3.013106         2.169959         1.298096
 O        -2.328302         1.877385        -0.043471
 C        -1.063743         1.781371         0.759987
 C        -0.828800         1.633839         3.146926
 C         0.358386         1.052912         2.334788
 H         0.127801        -0.470337        -0.707825
 H        -2.304859        -0.396745         0.740842
 H        -1.629621        -0.779842         2.485102
 H        -4.075210         1.830698         1.140024
 H        -2.972303         3.254888         1.538363
 H        -0.516555         2.742363         0.593213
 H        -0.590675         2.583695         3.548334
 H        -1.095254         1.024847         3.987249
 H         1.039298         1.917796         2.067854
 H         0.878309         0.345040         2.901859
