19
Iteration:  4446
 O         0.562584        -0.021157         0.010488
 C        -0.319057         0.432293         0.963413
 C        -1.763363        -0.050065         1.475693
 C        -1.921777         1.365065         2.059389
 C        -2.928537         2.235887         1.210192
 O        -2.216568         2.030151        -0.038358
 C        -0.943487         1.820864         0.787120
 C        -0.920505         1.536364         3.200793
 C         0.359168         0.900442         2.341792
 H         0.952327        -0.855633         0.295542
 H        -2.336088        -0.250298         0.566906
 H        -1.852492        -0.724256         2.275378
 H        -3.940211         1.755454         1.125352
 H        -2.833827         3.246322         1.543427
 H        -0.319382         2.858009         0.659001
 H        -0.763254         2.601587         3.291051
 H        -1.202105         1.031938         4.106799
 H         1.145886         1.607881         2.130788
 H         0.698469         0.090182         2.897964
