19
Iteration:  2684charge 0 multiplicity 1
 O         0.625037        -0.170988         0.164647
 C        -0.327100         0.481066         0.929703
 C        -1.585102        -0.013945         1.506292
 C        -1.774139         1.480828         1.967781
 C        -2.980040         2.082665         1.342791
 O        -2.362247         1.954458        -0.008702
 C        -1.031119         1.853032         0.687701
 C        -0.876864         1.620415         3.100270
 C         0.343930         0.994178         2.307589
 H         0.229144        -0.496257        -0.719146
 H        -2.287363        -0.299323         0.739052
 H        -1.593254        -0.774702         2.251692
 H        -4.023057         1.489585         1.364930
 H        -3.302439         3.093560         1.630971
 H        -0.474435         2.874133         0.589813
 H        -0.810693         2.714740         3.237421
 H        -1.161061         1.327023         4.100552
 H         1.063069         1.742095         2.121794
 H         0.762378         0.203079         2.996085
