19
Iteration:   696
 O         0.395505        -0.157474        -0.003102
 C        -0.183727         0.535646         1.028586
 C        -1.514493        -0.099563         1.552868
 C        -1.788169         1.418331         1.937997
 C        -3.015991         2.006169         1.317312
 O        -2.377974         1.882834        -0.012901
 C        -1.063606         1.871674         0.626009
 C        -0.905475         1.794711         3.096378
 C         0.427920         1.092522         2.432513
 H         1.370403        -0.377018         0.091366
 H        -2.117168        -0.467410         0.733466
 H        -1.641422        -0.868070         2.292145
 H        -3.874379         1.350099         1.434218
 H        -3.097844         3.009252         1.723547
 H        -0.491641         2.675856         0.395643
 H        -0.987471         2.896063         3.388990
 H        -1.221423         1.092431         3.889539
 H         1.397692         1.746616         2.321685
 H         0.731596         0.293688         2.990079
