19
Iteration:  3613
 O         0.535551        -0.132609         0.111062
 C        -0.339234         0.533077         0.976254
 C        -1.617055        -0.109438         1.510085
 C        -1.936407         1.382137         2.026636
 C        -3.052815         2.165485         1.236940
 O        -2.261568         2.046797        -0.024606
 C        -1.022700         1.850137         0.724344
 C        -0.804573         1.513414         3.164143
 C         0.381086         1.010157         2.237337
 H         1.048987        -0.785496         0.552423
 H        -2.244012        -0.458761         0.663956
 H        -1.539301        -0.800797         2.365556
 H        -4.131537         1.804280         0.941635
 H        -3.099549         3.272552         1.440469
 H        -0.443960         2.905701         0.725585
 H        -0.525482         2.503095         3.452246
 H        -0.893745         0.845829         4.098132
 H         0.935102         1.866324         1.969794
 H         1.039755         0.472645         2.805863
