19
Iteration:  1354charge 0 multiplicity 1
 O         0.669318        -0.112405         0.163851
 C        -0.230562         0.511768         0.957908
 C        -1.620520        -0.029590         1.538596
 C        -1.815428         1.463248         1.951233
 C        -3.058387         2.116816         1.309026
 O        -2.476165         1.867986         0.024528
 C        -1.063479         1.824026         0.644855
 C        -0.801615         1.701625         3.082356
 C         0.327070         1.001362         2.245863
 H         1.156821        -0.860982         0.612250
 H        -2.349532        -0.406034         0.793776
 H        -1.391637        -0.697643         2.348065
 H        -4.082161         1.531372         1.512935
 H        -3.451476         3.134107         1.442392
 H        -0.551536         2.698145         0.247292
 H        -0.603524         2.745062         3.188358
 H        -0.933399         1.165912         4.046379
 H         1.215836         1.675930         2.151537
 H         0.885377         0.246216         2.793409
