19
Iteration:  4339
 O         0.522582        -0.171333         0.031203
 C        -0.231209         0.470316         1.037594
 C        -1.665703        -0.146243         1.444657
 C        -1.861024         1.400190         1.925763
 C        -2.987796         2.266315         1.251695
 O        -2.277458         2.200756        -0.050081
 C        -0.989307         1.803821         0.697028
 C        -0.909342         1.478171         3.190428
 C         0.338832         1.016027         2.435079
 H         1.013656        -0.918386         0.349232
 H        -2.215591        -0.443169         0.517896
 H        -1.596640        -1.013271         2.128659
 H        -3.997561         1.758724         1.310011
 H        -3.053605         3.321087         1.559282
 H        -0.458903         2.693602         0.816631
 H        -0.834369         2.487442         3.545124
 H        -1.178323         0.812210         4.059655
 H         1.151747         1.685913         2.102473
 H         0.747369         0.083793         3.029567
