19
Iteration:  2129charge 0 multiplicity 1
 O         0.668415         0.024705         0.167552
 C        -0.333964         0.517620         1.002889
 C        -1.647265        -0.026379         1.569050
 C        -1.746196         1.502512         1.934466
 C        -3.060659         2.154645         1.256158
 O        -2.398926         1.803590        -0.007346
 C        -1.105349         1.726095         0.604913
 C        -0.764093         1.633253         3.143994
 C         0.377002         0.928749         2.343287
 H         0.185724        -0.314761        -0.674804
 H        -2.508652        -0.181286         0.891247
 H        -1.683346        -0.690579         2.503204
 H        -3.979434         1.519040         1.350327
 H        -3.155483         3.243186         1.378885
 H        -0.590740         2.786986         0.515395
 H        -0.627887         2.712277         3.246624
 H        -0.796758         1.128043         4.143894
 H         1.255056         1.640043         1.932169
 H         0.794344         0.055220         2.808096
