19
Iteration:  3184charge 0 multiplicity 1
 O         0.656574        -0.191269         0.232181
 C        -0.335546         0.505689         0.936378
 C        -1.657350        -0.075832         1.566158
 C        -1.757232         1.433602         1.966817
 C        -3.059684         2.004660         1.330316
 O        -2.394106         2.080053        -0.015326
 C        -1.050773         1.865699         0.624422
 C        -0.813785         1.710449         3.037302
 C         0.377126         0.957844         2.311097
 H         0.712774        -0.108573        -0.774163
 H        -2.417757        -0.398053         0.849014
 H        -1.515057        -0.890867         2.315935
 H        -4.011785         1.305935         1.511141
 H        -3.282180         3.063818         1.595882
 H        -0.337564         2.765015         0.580164
 H        -0.648544         2.718050         3.321561
 H        -1.068288         1.208624         3.939415
 H         1.213225         1.665314         2.059823
 H         0.558686         0.018448         2.777355
