19
Iteration:  4102
 O         0.446873        -0.269148         0.047149
 C        -0.276469         0.586371         0.959451
 C        -1.657032         0.087872         1.482003
 C        -1.801462         1.515573         1.936900
 C        -3.013337         2.119991         1.237142
 O        -2.234526         2.047387        -0.063232
 C        -0.998040         1.973177         0.731925
 C        -0.915776         1.384909         3.152311
 C         0.390178         0.901512         2.507356
 H         1.403704        -0.240105         0.235327
 H        -2.281813        -0.241167         0.679587
 H        -1.622602        -0.688885         2.261925
 H        -3.900376         1.421114         0.909935
 H        -3.226590         3.107740         1.455091
 H        -0.471099         2.904387         0.781337
 H        -0.768388         2.317604         3.594948
 H        -1.267355         0.682430         3.939870
 H         1.029665         1.821996         2.310201
 H         0.802400         0.023855         2.909916
