19
Iteration:  1384charge 0 multiplicity 1
 O         0.557612        -0.114698         0.086395
 C        -0.271570         0.460025         1.000274
 C        -1.645910        -0.073291         1.590198
 C        -1.848509         1.349922         1.977517
 C        -3.034227         2.015279         1.286348
 O        -2.396104         1.975008        -0.044776
 C        -1.075613         1.795815         0.689319
 C        -0.776330         1.795768         3.076234
 C         0.389853         1.009467         2.333677
 H         1.441080         0.094864         0.311839
 H        -2.429888        -0.404859         0.829469
 H        -1.454020        -0.854606         2.374949
 H        -3.982853         1.425286         1.248329
 H        -3.148396         3.096673         1.442731
 H        -0.459479         2.720556         0.433186
 H        -0.676607         2.924028         2.924978
 H        -0.858873         1.491042         4.130146
 H         1.120696         1.743016         2.056028
 H         0.838094         0.149081         3.048320
