19
Iteration:   819
 O         0.502020        -0.048589         0.155374
 C        -0.317497         0.574237         1.008162
 C        -1.538920        -0.058219         1.631228
 C        -1.755608         1.506062         2.003520
 C        -3.052258         1.979181         1.223077
 O        -2.388169         1.842322        -0.110598
 C        -1.086460         1.828684         0.740572
 C        -0.779888         1.712231         3.108635
 C         0.453952         1.045315         2.292304
 H         0.014164        -0.820587        -0.247607
 H        -2.312557        -0.405651         0.880502
 H        -1.484875        -0.844903         2.459316
 H        -3.995259         1.394803         1.211339
 H        -3.404372         3.044854         1.343566
 H        -0.486233         2.634210         0.362019
 H        -0.469303         2.684041         3.498094
 H        -0.967383         1.058838         4.032235
 H         1.208919         1.835559         1.939393
 H         0.831198         0.066335         2.628371
