19
Iteration:  1803
 O         0.566165        -0.105805         0.170545
 C        -0.295531         0.475940         1.018552
 C        -1.571072        -0.085309         1.643749
 C        -1.892143         1.395484         1.948035
 C        -3.088289         2.122578         1.229545
 O        -2.317503         1.917061        -0.002467
 C        -1.045178         1.879299         0.676873
 C        -0.832873         1.588653         3.078769
 C         0.416499         1.132987         2.231102
 H         0.208545        -0.841731        -0.437133
 H        -2.171376        -0.513731         0.811907
 H        -1.453735        -0.688023         2.537824
 H        -3.927559         1.501741         1.329937
 H        -3.268199         3.299017         1.420498
 H        -0.415980         2.765830         0.616165
 H        -0.702889         2.553998         3.601936
 H        -1.038864         0.733648         3.739184
 H         1.053892         1.968107         1.897892
 H         1.273998         0.518270         2.787091
