19
Iteration:  1062
 O         0.453033        -0.294556         0.125955
 C        -0.202495         0.576008         0.984598
 C        -1.446643        -0.036036         1.545642
 C        -1.826050         1.379806         1.950120
 C        -3.093848         2.020142         1.402079
 O        -2.401299         1.851954        -0.056179
 C        -1.103626         1.809860         0.682172
 C        -0.855447         1.739117         3.066010
 C         0.407148         1.248951         2.294533
 H         1.409030        -0.053512        -0.034806
 H        -2.191363        -0.195460         0.721810
 H        -1.506713        -0.796450         2.361358
 H        -3.978885         1.446656         1.354955
 H        -3.088923         3.065785         1.776768
 H        -0.441889         2.723077         0.523559
 H        -0.724144         2.797977         3.307878
 H        -0.985092         1.127937         4.017237
 H         0.997652         1.988580         1.838682
 H         0.958310         0.502659         2.824160
