19
Iteration:   434
 O         0.511384        -0.153563        -0.031376
 C        -0.257315         0.603919         1.011684
 C        -1.538267        -0.072138         1.475719
 C        -1.804591         1.416287         1.950925
 C        -3.046778         1.981309         1.344342
 O        -2.339193         1.860393         0.048707
 C        -1.014738         1.880616         0.707270
 C        -0.850408         1.828077         3.041929
 C         0.308499         1.001728         2.402442
 H         1.063022        -0.864077         0.382641
 H        -2.243412        -0.504983         0.699034
 H        -1.384729        -0.800440         2.257236
 H        -3.978700         1.396011         1.386031
 H        -3.381120         3.030400         1.641646
 H        -0.483173         2.883529         0.646418
 H        -0.805204         2.952422         2.994295
 H        -1.131256         1.507118         4.041400
 H         1.260815         1.597198         2.376622
 H         0.604372         0.206466         2.989650
