19
Iteration:  3522charge 0 multiplicity 1
 O         0.655763        -0.050868         0.187108
 C        -0.328180         0.467586         0.959024
 C        -1.729787        -0.149330         1.489429
 C        -1.820947         1.419214         2.011958
 C        -3.041493         2.138546         1.250866
 O        -2.322369         2.035951        -0.004681
 C        -1.057350         1.770151         0.629647
 C        -0.791634         1.598523         3.123038
 C         0.398439         1.008767         2.344006
 H         0.247990        -0.443069        -0.625966
 H        -2.468764        -0.355961         0.721806
 H        -1.776309        -0.862853         2.281651
 H        -3.951746         1.580481         1.297891
 H        -3.186300         3.259635         1.583138
 H        -0.235411         2.650337         0.701111
 H        -0.606938         2.697492         3.320977
 H        -1.160922         1.161078         4.064694
 H         1.099224         1.753633         2.220644
 H         0.995170         0.149722         2.733919
