19
Iteration:  3942
 O         0.664616        -0.190776         0.156047
 C        -0.323129         0.433818         0.974659
 C        -1.704123        -0.103269         1.441466
 C        -1.856819         1.412697         1.925712
 C        -3.030666         2.141770         1.297916
 O        -2.240449         2.205337         0.037757
 C        -0.949216         1.872708         0.720372
 C        -0.963099         1.550406         3.129899
 C         0.331198         0.913200         2.335057
 H         0.302230        -0.289507        -0.722807
 H        -2.310971        -0.393658         0.586783
 H        -1.630649        -0.912307         2.212503
 H        -3.887690         1.555027         1.174717
 H        -3.198315         3.255694         1.443845
 H        -0.121423         2.723762         0.843181
 H        -0.710572         2.624992         3.387136
 H        -1.425681         1.039619         3.973628
 H         1.000973         1.717657         2.071447
 H         0.985543         0.184143         2.944900
