19
Iteration:  4535
 O         0.534541         0.009962         0.072454
 C        -0.308628         0.502122         1.008201
 C        -1.669854        -0.012704         1.483705
 C        -1.867293         1.362518         1.943849
 C        -2.960683         2.282291         1.227896
 O        -2.277343         2.007802        -0.073236
 C        -1.072238         1.849998         0.703137
 C        -0.780368         1.511185         3.203463
 C         0.323104         0.762627         2.421573
 H         0.866828        -0.808734         0.491658
 H        -2.268353        -0.136833         0.592580
 H        -1.717825        -0.857430         2.084603
 H        -3.997862         1.937066         1.076865
 H        -2.858300         3.312578         1.492533
 H        -0.453107         2.852941         0.677420
 H        -0.448437         2.462009         3.269350
 H        -1.129692         1.072374         4.098459
 H         1.225197         1.296437         2.319638
 H         0.530079        -0.113238         2.914045
