19
Iteration:  4139
 O         0.538790        -0.111245         0.070799
 C        -0.345388         0.459619         1.006849
 C        -1.721929        -0.106708         1.437370
 C        -1.874003         1.342677         1.982889
 C        -2.985253         2.218805         1.215810
 O        -2.166617         2.091992         0.010699
 C        -0.981584         1.780934         0.754240
 C        -0.860691         1.614813         3.086291
 C         0.310856         0.863405         2.449808
 H         0.854733         0.671446        -0.468842
 H        -2.394647        -0.317823         0.567657
 H        -1.762821        -0.925391         2.160903
 H        -3.908660         1.763427         1.032303
 H        -3.164103         3.165787         1.641812
 H        -0.308469         2.597144         0.711644
 H        -0.747691         2.760579         3.166233
 H        -1.236175         1.308857         4.068010
 H         1.306297         1.531850         2.403578
 H         0.739155         0.055694         3.125668
