19
Iteration:   257charge 0 multiplicity 1
 O         0.439300        -0.076889         0.022243
 C        -0.231164         0.574307         1.018096
 C        -1.494706        -0.122125         1.560530
 C        -1.774663         1.500009         1.943405
 C        -3.037404         2.043325         1.314905
 O        -2.340878         1.744107        -0.034251
 C        -1.079450         1.875158         0.676733
 C        -0.914112         1.689639         3.173034
 C         0.398612         1.142276         2.316254
 H         0.750471        -0.976825         0.258106
 H        -2.179521        -0.416846         0.798747
 H        -1.261755        -0.721330         2.507344
 H        -3.932130         1.401659         1.520939
 H        -3.060921         3.136788         1.278058
 H        -0.560899         2.698306         0.317788
 H        -0.721267         2.697391         3.467210
 H        -1.220215         1.147467         4.162354
 H         1.085896         1.993315         2.028738
 H         0.949328         0.324277         2.723388
