19
Iteration:  2081charge 0 multiplicity 1
 O         0.571786        -0.279557         0.180914
 C        -0.257405         0.530545         0.984427
 C        -1.505987        -0.096832         1.554625
 C        -1.885960         1.402224         1.954213
 C        -3.074358         1.947532         1.281407
 O        -2.359835         2.115876        -0.003231
 C        -1.085557         1.855365         0.717428
 C        -0.821825         1.733378         3.051050
 C         0.408145         1.089813         2.268089
 H         0.055134        -0.499795        -0.573106
 H        -2.133744        -0.316151         0.687331
 H        -1.408642        -0.907508         2.224341
 H        -3.907411         1.286780         1.370134
 H        -3.355273         2.891371         1.720228
 H        -0.545264         2.747328         0.608422
 H        -0.616624         2.806304         3.194402
 H        -1.094319         1.187255         4.006217
 H         1.168906         2.012752         2.115352
 H         0.957294         0.258243         2.982851
