19
Iteration:   475charge 0 multiplicity 1
 O         0.601496        -0.059298         0.188876
 C        -0.282950         0.467074         0.984099
 C        -1.715857        -0.108065         1.659845
 C        -1.802163         1.488078         1.940274
 C        -3.083302         2.104733         1.313913
 O        -2.381730         1.908810        -0.050828
 C        -1.080259         1.809683         0.600973
 C        -0.800618         1.516139         3.104634
 C         0.433047         1.099848         2.219041
 H         1.535527         0.161116         0.451331
 H        -2.518994        -0.387262         0.941992
 H        -1.564552        -0.715148         2.539863
 H        -4.082607         1.600145         1.337135
 H        -3.258440         3.149255         1.348335
 H        -0.506197         2.783274         0.295812
 H        -0.603789         2.528834         3.465070
 H        -0.907367         0.886245         4.047095
 H         1.106522         1.942004         1.808698
 H         1.096615         0.316021         2.592476
