19
Iteration:  3008
 O         0.551252        -0.023542         0.090955
 C        -0.387784         0.530183         1.024321
 C        -1.606384        -0.052193         1.623128
 C        -1.896766         1.400703         2.070175
 C        -2.966027         2.119911         1.174645
 O        -2.275813         1.913401        -0.067761
 C        -1.075835         1.765463         0.679250
 C        -0.789736         1.594561         3.178735
 C         0.399255         1.046814         2.278770
 H         0.020909        -0.656373        -0.503745
 H        -2.358519        -0.308565         0.869560
 H        -1.423024        -0.998126         2.230788
 H        -4.052090         1.713385         1.363442
 H        -2.953170         3.220310         1.401792
 H        -0.377288         2.702035         0.697275
 H        -0.707267         2.624509         3.429547
 H        -0.961276         0.991848         4.019181
 H         1.227171         1.764472         2.071768
 H         0.892398         0.237469         2.613690
