19
Iteration:  1342charge 0 multiplicity 1
 O         0.655959        -0.139141         0.125141
 C        -0.344451         0.580699         0.957880
 C        -1.540711         0.022651         1.543142
 C        -1.812868         1.465550         1.985821
 C        -3.054203         2.071252         1.295212
 O        -2.486957         1.834163        -0.014890
 C        -1.059457         1.844789         0.532838
 C        -0.816592         1.628232         3.117204
 C         0.436187         1.055240         2.380365
 H         0.651184        -1.037468         0.554851
 H        -2.305185        -0.346660         0.793260
 H        -1.514959        -0.690523         2.366887
 H        -4.065533         1.515907         1.550585
 H        -2.846013         3.096779         1.548186
 H        -0.543395         2.815300         0.369090
 H        -0.683885         2.695239         3.344294
 H        -1.181826         1.232036         4.085202
 H         1.043469         1.845878         1.974857
 H         0.880311         0.123620         2.804758
