19
Iteration:  4734charge 0 multiplicity 1
 O         0.475046        -0.300108         0.080977
 C        -0.280280         0.567263         0.909451
 C        -1.611532        -0.049490         1.435143
 C        -1.832075         1.427533         1.990948
 C        -3.015272         2.088637         1.198696
 O        -2.167471         2.147373        -0.002899
 C        -0.963473         1.938629         0.748915
 C        -0.938663         1.561823         3.256291
 C         0.311871         0.902769         2.396156
 H         0.709895         0.236909        -0.708250
 H        -2.286782        -0.095280         0.585639
 H        -1.612056        -0.916391         2.040717
 H        -3.949655         1.448878         1.096219
 H        -3.359029         3.131096         1.562528
 H        -0.437469         2.898332         0.664502
 H        -0.701792         2.572631         3.651749
 H        -1.173684         0.927172         4.140736
 H         1.220755         1.433806         2.536499
 H         0.460802        -0.048100         2.865008
