19
Iteration:  2717charge 0 multiplicity 1
 O         0.548017        -0.096295         0.078213
 C        -0.250820         0.503222         0.998215
 C        -1.571164        -0.071308         1.584963
 C        -1.863097         1.411683         1.993831
 C        -3.092416         2.012727         1.206084
 O        -2.304963         2.058561        -0.034812
 C        -1.089278         1.859743         0.780082
 C        -0.772350         1.713459         3.017533
 C         0.404335         0.908258         2.399420
 H         0.060599        -0.746094        -0.475902
 H        -2.191097        -0.289778         0.738267
 H        -1.559309        -0.799697         2.368765
 H        -3.918897         1.165370         1.109875
 H        -3.381272         3.024699         1.526896
 H        -0.589811         2.923817         0.916386
 H        -0.655991         2.782158         2.812362
 H        -0.869406         1.477226         4.082915
 H         1.316425         1.414922         2.339082
 H         0.556230        -0.004778         3.036550
