19
Iteration:   467charge 0 multiplicity 1
 O         0.631425        -0.058528         0.134928
 C        -0.325036         0.539153         1.061118
 C        -1.687831        -0.048424         1.652843
 C        -1.846594         1.458506         1.972437
 C        -3.092163         2.067992         1.221260
 O        -2.455976         1.951434        -0.041031
 C        -1.061725         1.770196         0.608784
 C        -0.677348         1.556177         3.085758
 C         0.402442         1.001478         2.263381
 H         1.566945         0.017972         0.533510
 H        -2.360359        -0.593040         0.935818
 H        -1.511267        -0.572148         2.586627
 H        -3.999607         1.479307         1.132782
 H        -3.173515         3.157543         1.500847
 H        -0.375197         2.699376         0.448359
 H        -0.640726         2.638737         3.368416
 H        -0.908786         0.991118         3.965529
 H         0.933405         1.900519         1.871597
 H         0.946772         0.242524         2.675104
