19
Iteration:  1549charge 0 multiplicity 1
 O         0.552275        -0.190231         0.157040
 C        -0.304915         0.530036         1.074291
 C        -1.628454        -0.017136         1.658935
 C        -1.805081         1.497082         1.982028
 C        -3.075393         2.050533         1.176312
 O        -2.320602         1.869635        -0.109118
 C        -1.110666         1.942843         0.699552
 C        -0.773652         1.569231         3.139854
 C         0.413955         1.094948         2.291221
 H         0.263268        -0.071707        -0.777319
 H        -2.416498        -0.367298         0.948981
 H        -1.351109        -0.707137         2.515539
 H        -3.798145         1.323479         1.161676
 H        -3.379395         3.111697         1.458053
 H        -0.404530         2.786017         0.719827
 H        -0.405457         2.615828         3.569703
 H        -1.089809         0.798810         3.878940
 H         1.003783         1.791134         1.847189
 H         1.114884         0.227610         2.559583
