19
Iteration:   248
 O         0.457904        -0.065430         0.074760
 C        -0.288489         0.652666         0.999166
 C        -1.411589        -0.064219         1.563152
 C        -1.826947         1.438148         1.952597
 C        -3.028344         2.075961         1.322387
 O        -2.398322         1.729078        -0.012886
 C        -1.016746         1.833582         0.629018
 C        -0.883525         1.641190         3.096955
 C         0.398823         1.121017         2.334410
 H         0.324260        -1.009367         0.304915
 H        -1.974765        -0.625544         0.833645
 H        -1.185775        -0.778333         2.350666
 H        -4.046724         1.756265         1.333596
 H        -3.049833         3.125437         1.561754
 H        -0.526342         2.730283         0.394218
 H        -0.814051         2.718910         3.231763
 H        -1.172657         1.229683         4.043102
 H         1.196210         1.907864         2.188957
 H         0.808713         0.336254         2.901758
