19
Iteration:  3117
 O         0.446653        -0.101778         0.045927
 C        -0.310590         0.559958         0.968825
 C        -1.461229        -0.171580         1.555776
 C        -1.827482         1.452348         1.971434
 C        -2.972807         2.108590         1.245429
 O        -2.322884         1.929519        -0.036419
 C        -1.003229         1.810145         0.695533
 C        -0.896012         1.647600         3.165561
 C         0.373869         1.031558         2.410480
 H         0.052902        -0.687989        -0.599773
 H        -2.356774        -0.299339         0.994429
 H        -1.353928        -0.885193         2.371513
 H        -4.100965         1.669106         1.252455
 H        -3.012049         3.213793         1.560262
 H        -0.248101         2.734815         0.403370
 H        -0.732742         2.723720         3.324367
 H        -1.234859         1.250435         4.081673
 H         1.060509         1.908202         2.283009
 H         0.950749         0.254105         2.929724
