19
Iteration:  2256
 O         0.630580        -0.143471         0.160770
 C        -0.226766         0.536883         0.987763
 C        -1.643985         0.004980         1.484625
 C        -1.758308         1.441762         1.959967
 C        -3.060412         2.135871         1.367640
 O        -2.434228         1.825907         0.001564
 C        -1.038274         1.850857         0.612959
 C        -0.852425         1.604888         3.110499
 C         0.408292         1.044123         2.326325
 H         0.168046        -0.323164        -0.628915
 H        -2.411782        -0.300293         0.821338
 H        -1.433766        -0.678670         2.254486
 H        -4.053749         1.648892         1.607960
 H        -3.217927         3.294907         1.488644
 H        -0.473874         2.835596         0.288797
 H        -0.700972         2.671568         3.306361
 H        -1.149240         1.031843         3.977700
 H         1.143240         1.701690         2.126771
 H         0.889132         0.151968         2.877431
