19
Iteration:    94charge 0 multiplicity 1
 O         0.798905        -0.078282         0.114048
 C        -0.242274         0.540992         0.989446
 C        -1.577787        -0.011021         1.712413
 C        -1.871178         1.472289         1.972606
 C        -3.121546         1.949418         1.295276
 O        -2.511027         1.801734        -0.055398
 C        -1.200548         1.831121         0.683124
 C        -0.736705         1.786783         2.987108
 C         0.442953         1.011156         2.294354
 H         0.305739        -0.644836        -0.555125
 H        -2.328369        -0.403174         1.026458
 H        -1.462244        -0.600293         2.673526
 H        -4.056686         1.353520         1.300060
 H        -3.321485         3.037438         1.415359
 H        -0.841845         2.952595         0.656453
 H        -0.603038         2.873800         3.176190
 H        -0.966807         1.441011         4.064227
 H         1.343022         1.681123         2.174754
 H         0.849167         0.152371         2.827024
