19
Iteration:  1959
 O         0.581177        -0.168792         0.190739
 C        -0.278975         0.585713         0.995123
 C        -1.587868        -0.014134         1.605376
 C        -1.849256         1.479875         1.944617
 C        -3.106389         1.890958         1.280964
 O        -2.345823         1.988841        -0.031778
 C        -1.066197         1.888971         0.719302
 C        -0.821562         1.688165         3.059364
 C         0.453656         1.011078         2.265604
 H         0.127790        -0.520609        -0.602021
 H        -2.137598        -0.428453         0.786363
 H        -1.631473        -0.694492         2.441277
 H        -3.925509         1.289766         1.171348
 H        -3.482642         2.872163         1.552623
 H        -0.444096         2.784764         0.700835
 H        -0.467334         2.733117         3.287984
 H        -0.862642         1.078994         4.006421
 H         1.186931         1.817221         1.874439
 H         0.786058        -0.025069         2.709702
