19
Iteration:  4434charge 0 multiplicity 1
 O         0.592658        -0.013051        -0.017073
 C        -0.393316         0.517308         0.932923
 C        -1.731899        -0.023474         1.424084
 C        -1.804678         1.472708         1.988711
 C        -2.907309         2.198103         1.247388
 O        -2.215188         1.931054         0.004008
 C        -0.962092         1.810333         0.709640
 C        -0.910853         1.591286         3.252648
 C         0.244318         0.825757         2.427599
 H         0.957501        -0.848359         0.296186
 H        -2.605532        -0.129783         0.795400
 H        -1.647698        -0.939283         1.980569
 H        -3.977339         1.849297         1.170738
 H        -3.122320         3.239071         1.446751
 H        -0.153687         2.711581         0.759759
 H        -0.721792         2.645945         3.603590
 H        -1.122744         1.113297         4.194840
 H         1.130462         1.469853         2.335181
 H         0.650074        -0.107471         2.734342
