19
Iteration:   404
 O         0.515842        -0.075799        -0.032636
 C        -0.276414         0.537166         1.070080
 C        -1.574864        -0.104185         1.570990
 C        -1.838899         1.416308         1.942955
 C        -3.041890         2.012045         1.251758
 O        -2.325360         1.870322        -0.071995
 C        -1.083497         1.842058         0.677238
 C        -0.794342         1.761537         3.174400
 C         0.419980         1.095643         2.417571
 H         0.194983        -1.025068        -0.026461
 H        -2.203148        -0.380792         0.710281
 H        -1.388024        -0.850161         2.373478
 H        -3.935388         1.384257         1.336378
 H        -3.403975         3.021451         1.514078
 H        -0.598919         2.741164         0.617507
 H        -0.736001         2.854258         3.447906
 H        -1.111626         1.237238         4.039456
 H         1.288356         1.755458         2.305355
 H         0.961102         0.217911         2.999085
