19
Iteration:  1261
 O         0.583601        -0.179990         0.095030
 C        -0.261752         0.557090         1.002388
 C        -1.550262        -0.052821         1.617624
 C        -1.810517         1.471449         1.938119
 C        -3.152767         1.974258         1.273657
 O        -2.371097         1.908331         0.011663
 C        -1.088560         1.799507         0.605817
 C        -0.792290         1.782051         3.067035
 C         0.412644         0.959818         2.384664
 H         0.817849         0.527734        -0.478959
 H        -2.351022        -0.318991         0.938604
 H        -1.541523        -0.716892         2.557578
 H        -3.971890         1.401381         1.521157
 H        -3.529147         2.995766         1.398969
 H        -0.534758         2.798209         0.398162
 H        -0.607822         2.929290         2.957276
 H        -1.152626         1.556849         4.099125
 H         1.312902         1.587738         2.235980
 H         0.914296         0.070011         2.904896
