19
Iteration:   866charge 0 multiplicity 1
 O         0.552561        -0.198279         0.069903
 C        -0.288891         0.528201         1.006629
 C        -1.496547        -0.136369         1.565129
 C        -1.813626         1.460583         1.960576
 C        -3.024036         2.137461         1.327431
 O        -2.447629         1.796949         0.008309
 C        -1.116070         1.781145         0.620549
 C        -0.801541         1.781151         3.093922
 C         0.391439         1.118023         2.331918
 H         1.244846         0.475490        -0.223133
 H        -2.111328        -0.480128         0.736980
 H        -1.391331        -1.059717         2.253120
 H        -4.008080         1.735735         1.543425
 H        -3.144290         3.211587         1.422859
 H        -0.769180         2.763958         0.433725
 H        -0.659751         2.814691         3.388705
 H        -1.031600         1.253777         4.008428
 H         1.170636         1.839864         2.187168
 H         0.640972         0.203023         3.032821
