19
Iteration:   454
 O         0.618312        -0.087838         0.067724
 C        -0.311071         0.483298         0.948809
 C        -1.572047        -0.055736         1.644539
 C        -1.883645         1.443764         1.982714
 C        -3.092483         2.043092         1.245534
 O        -2.403368         1.958692        -0.060226
 C        -1.134136         1.802458         0.684915
 C        -0.774884         1.721643         3.114447
 C         0.433625         0.978798         2.308034
 H         1.363316        -0.263870         0.612233
 H        -2.291194        -0.394589         0.835860
 H        -1.499246        -0.784864         2.433121
 H        -4.034517         1.469893         1.345026
 H        -3.386397         3.057584         1.509199
 H        -0.543909         2.809084         0.482233
 H        -0.395059         2.715577         3.371811
 H        -1.004571         1.177146         4.076933
 H         1.413226         1.540089         2.157991
 H         0.781863         0.125094         2.810004
