19
Iteration:  1912charge 0 multiplicity 1
 O         0.613054        -0.143746         0.135255
 C        -0.234791         0.517795         1.015393
 C        -1.588767        -0.023908         1.544572
 C        -1.793045         1.418911         1.950226
 C        -3.020180         2.139540         1.329554
 O        -2.371328         1.842322        -0.015365
 C        -1.097265         1.853910         0.649919
 C        -0.918432         1.597534         3.111124
 C         0.421695         1.148789         2.267877
 H         0.002859        -0.694274        -0.312223
 H        -2.379738        -0.346794         0.821858
 H        -1.367640        -0.928884         2.197632
 H        -3.970901         1.685325         1.604066
 H        -3.045785         3.102935         1.624723
 H        -0.481709         2.690585         0.447787
 H        -0.801454         2.626707         3.469110
 H        -1.155934         0.914570         3.941841
 H         0.932611         2.005142         1.868464
 H         1.008494         0.327138         2.905998
