19
Iteration:  3562
 O         0.508544        -0.063755         0.007540
 C        -0.266164         0.642472         0.972699
 C        -1.537170        -0.080398         1.465089
 C        -1.795147         1.507842         1.938125
 C        -3.030997         2.098575         1.263560
 O        -2.333356         1.916983        -0.028877
 C        -1.030565         1.880302         0.723699
 C        -0.846730         1.635496         3.149982
 C         0.347675         0.855195         2.528719
 H         0.136827        -0.971284        -0.047285
 H        -2.258257        -0.338736         0.639816
 H        -1.308717        -0.887840         2.206189
 H        -3.981832         1.523358         1.194287
 H        -3.306288         3.102545         1.431159
 H        -0.541032         2.722435         0.374182
 H        -0.519106         2.709781         3.229140
 H        -1.132750         1.251375         4.119502
 H         1.447330         1.367898         2.585384
 H         0.406624        -0.204359         3.014665
