19
Iteration:  4840
 O         0.529535        -0.089282        -0.048454
 C        -0.323503         0.503924         1.017992
 C        -1.705147        -0.088216         1.472427
 C        -1.792005         1.442007         1.966773
 C        -3.066991         2.184599         1.107040
 O        -2.222458         2.079674        -0.022907
 C        -0.970575         1.850710         0.806561
 C        -0.818479         1.578772         3.238779
 C         0.351770         0.833536         2.482162
 H         0.423172        -1.064468         0.074132
 H        -2.359377        -0.244757         0.640852
 H        -1.755680        -0.911791         2.224406
 H        -4.008635         1.584195         1.037103
 H        -3.252180         3.234976         1.334477
 H        -0.337188         2.852347         0.713211
 H        -0.624384         2.625960         3.432240
 H        -1.193460         1.185868         4.212041
 H         1.129829         1.629162         2.301901
 H         0.803228        -0.003406         2.976575
