19
Iteration:  2716charge 0 multiplicity 1
 O         0.548414        -0.098315         0.078870
 C        -0.255094         0.510174         0.998648
 C        -1.573122        -0.079743         1.584214
 C        -1.862895         1.406897         1.997593
 C        -3.089733         2.013079         1.206419
 O        -2.305302         2.057599        -0.032547
 C        -1.089727         1.858531         0.769329
 C        -0.762656         1.710490         3.017853
 C         0.404760         0.911540         2.400930
 H         0.048073        -0.721456        -0.440852
 H        -2.184592        -0.290959         0.720662
 H        -1.558772        -0.804525         2.357916
 H        -3.880936         1.196472         1.075401
 H        -3.400872         3.041568         1.558294
 H        -0.598703         2.926340         0.909805
 H        -0.663570         2.786579         2.827817
 H        -0.889449         1.495465         4.089161
 H         1.312310         1.407781         2.355366
 H         0.507719         0.039133         3.016516
