19
Iteration:  3670
 O         0.577845        -0.240467         0.151602
 C        -0.290934         0.591512         0.902842
 C        -1.662516         0.005417         1.450384
 C        -1.803355         1.488690         2.005341
 C        -2.978887         2.081450         1.319095
 O        -2.360953         1.986164        -0.036452
 C        -1.050535         1.867735         0.675727
 C        -0.865373         1.644238         3.136414
 C         0.378844         0.864311         2.397502
 H         1.110344         0.459805        -0.343448
 H        -2.378669        -0.121170         0.597901
 H        -1.650328        -0.910263         2.099856
 H        -3.977354         1.444435         1.340774
 H        -3.238044         3.117585         1.402848
 H        -0.476314         2.871544         0.627426
 H        -0.533135         2.645022         3.431442
 H        -1.070241         1.092251         4.065649
 H         1.346237         1.372427         2.348135
 H         0.502663        -0.035695         2.851795
