19
Iteration:   877
 O         0.479861        -0.178189         0.141786
 C        -0.214286         0.580226         0.964911
 C        -1.499450        -0.130055         1.496499
 C        -1.805719         1.348881         1.972825
 C        -3.032617         2.103353         1.353266
 O        -2.484698         1.837554         0.019139
 C        -1.135078         1.827327         0.597899
 C        -0.825208         1.786024         3.026137
 C         0.407447         1.103078         2.384437
 H         1.400591         0.098201         0.092334
 H        -2.137515        -0.587720         0.740656
 H        -1.226518        -0.728016         2.451948
 H        -4.042075         1.717885         1.338281
 H        -2.885438         3.161338         1.588777
 H        -0.522173         2.646769         0.340741
 H        -0.752869         2.875946         3.064629
 H        -0.905534         1.347534         4.004403
 H         1.292511         1.678318         2.166738
 H         0.933712         0.196623         2.995575
