19
Iteration:  4194
 O         0.631207        -0.147514         0.225032
 C        -0.343710         0.562547         0.997161
 C        -1.686375         0.028879         1.422986
 C        -1.796765         1.530729         1.934739
 C        -3.011435         2.181938         1.244125
 O        -2.286099         2.057992        -0.084526
 C        -0.985767         1.968664         0.713293
 C        -0.843900         1.376263         3.219875
 C         0.327839         0.817102         2.300595
 H         0.155403        -0.986571        -0.017405
 H        -2.319599        -0.226979         0.558808
 H        -1.740877        -0.740175         2.207774
 H        -3.905725         1.608157         1.242530
 H        -3.141488         3.169373         1.532808
 H        -0.410151         2.812595         0.670542
 H        -0.655193         2.385225         3.712637
 H        -1.367867         0.710007         3.900229
 H         1.096526         1.697662         2.171279
 H         0.691550        -0.188692         2.690490
