19
Iteration:  1608charge 0 multiplicity 1
 O         0.673262        -0.121119         0.172568
 C        -0.302791         0.530291         0.984031
 C        -1.611383        -0.036964         1.557434
 C        -1.808476         1.379892         1.957183
 C        -3.026582         2.101790         1.295019
 O        -2.432426         1.892882        -0.016662
 C        -1.083742         1.824012         0.691580
 C        -0.778544         1.754876         3.043940
 C         0.391915         0.981096         2.336464
 H         0.030456        -0.628435        -0.439931
 H        -2.312700        -0.387627         0.793402
 H        -1.449501        -0.765191         2.313030
 H        -4.091667         1.647734         1.177506
 H        -3.226994         3.101654         1.499703
 H        -0.630050         2.854949         0.522343
 H        -0.655760         2.860096         3.029941
 H        -0.996768         1.525670         4.157271
 H         1.491596         1.425562         2.318896
 H         0.463093        -0.012592         2.661306
