19
Iteration:  1360
 O         0.678356        -0.111804         0.139724
 C        -0.241688         0.502516         0.968315
 C        -1.644527        -0.091871         1.545973
 C        -1.830464         1.522971         1.939213
 C        -3.084529         2.099700         1.369045
 O        -2.442599         1.881450         0.015019
 C        -1.093679         1.789367         0.661999
 C        -0.795011         1.724383         3.043266
 C         0.367517         1.023855         2.244786
 H         1.272694        -0.678321         0.727270
 H        -2.362548        -0.407427         0.771888
 H        -1.531929        -0.844933         2.402343
 H        -3.908278         1.488640         1.242961
 H        -3.390230         3.171021         1.442109
 H        -0.506874         2.742617         0.430532
 H        -0.532448         2.836078         3.236051
 H        -0.954108         1.166836         3.957590
 H         1.188019         1.709445         2.109436
 H         0.652760         0.043340         2.840592
