19
Iteration:  1108charge 0 multiplicity 1
 O         0.657513        -0.018393         0.140472
 C        -0.287964         0.527034         0.994081
 C        -1.662275        -0.022706         1.705352
 C        -1.799014         1.497103         2.024243
 C        -3.043554         2.018713         1.304780
 O        -2.403776         1.790224        -0.081703
 C        -1.098370         1.769351         0.634258
 C        -0.822081         1.729697         3.065626
 C         0.447396         1.034138         2.236159
 H        -0.019340        -0.313843        -0.477291
 H        -2.307250        -0.469754         0.868490
 H        -1.460001        -0.756344         2.548329
 H        -3.921407         1.411110         1.572236
 H        -3.086667         3.124909         1.306638
 H        -0.536755         2.709303         0.559735
 H        -0.630456         2.818580         3.297436
 H        -0.991723         1.185886         3.954019
 H         1.218239         1.664958         2.050551
 H         0.703537         0.027412         2.717348
