19
Iteration:  2119charge 0 multiplicity 1
 O         0.678563        -0.035167         0.149300
 C        -0.301438         0.504713         1.016331
 C        -1.655910        -0.038236         1.590545
 C        -1.811752         1.444268         1.998160
 C        -2.998118         2.069638         1.322570
 O        -2.424274         1.878122        -0.040956
 C        -1.081326         1.794927         0.661738
 C        -0.793966         1.709074         3.010909
 C         0.374256         0.951601         2.335025
 H         0.276259        -0.378797        -0.715073
 H        -2.320154        -0.421332         0.785533
 H        -1.594364        -0.843019         2.410691
 H        -4.086226         1.681001         1.342501
 H        -3.165417         3.153092         1.561043
 H        -0.374816         2.750070         0.503536
 H        -0.516178         2.756627         3.188316
 H        -1.139828         1.269036         3.987773
 H         1.255278         1.640892         2.115387
 H         0.653349         0.063969         2.779073
