19
Iteration:   140charge 0 multiplicity 1
 O         0.427043        -0.120701        -0.001906
 C        -0.234201         0.646654         0.993608
 C        -1.545456        -0.060210         1.629083
 C        -1.833593         1.381537         1.988577
 C        -3.016334         1.989151         1.319315
 O        -2.371964         1.699541        -0.091466
 C        -1.076608         1.813585         0.680318
 C        -0.866267         1.733881         3.127590
 C         0.454102         1.221266         2.310125
 H         1.146495        -0.665315         0.469036
 H        -2.227598        -0.415752         0.893213
 H        -1.345495        -0.706930         2.470263
 H        -4.016450         1.605571         1.464027
 H        -2.920463         3.109872         1.488786
 H        -0.652861         2.913054         0.582163
 H        -0.807920         2.848867         3.470636
 H        -1.013321         1.205623         4.057998
 H         1.213383         1.984844         1.968357
 H         0.988051         0.529851         2.945643
