19
Iteration:  1118charge 0 multiplicity 1
 O         0.622805        -0.029275         0.085785
 C        -0.305140         0.592168         0.991969
 C        -1.623988        -0.060813         1.646716
 C        -1.818736         1.449066         1.963314
 C        -3.008789         2.014175         1.267413
 O        -2.412038         1.759925        -0.018767
 C        -1.118105         1.835682         0.660423
 C        -0.749203         1.776228         3.060664
 C         0.421307         1.005055         2.352280
 H         0.349970        -0.746000        -0.442002
 H        -2.498131        -0.364295         0.975393
 H        -1.733481        -0.628200         2.594962
 H        -3.939133         1.444656         1.304127
 H        -3.285871         3.091997         1.444573
 H        -0.573844         2.776560         0.365875
 H        -0.567470         2.862810         3.304711
 H        -1.018356         1.295269         4.011476
 H         1.274862         1.520297         2.127365
 H         0.888519         0.108909         2.838882
