19
Iteration:  4252charge 0 multiplicity 1
 O         0.522086        -0.114014        -0.015999
 C        -0.336180         0.534164         0.971615
 C        -1.645838        -0.104418         1.530814
 C        -1.895519         1.331767         1.917718
 C        -2.891476         2.133886         1.253081
 O        -2.180324         2.178129        -0.046642
 C        -1.014712         1.885676         0.784662
 C        -0.934672         1.560606         3.127257
 C         0.323505         0.905019         2.409802
 H         0.577867        -1.017707         0.362592
 H        -2.339331        -0.417092         0.738980
 H        -1.505496        -0.894731         2.321850
 H        -3.841916         1.922689         1.159296
 H        -2.814547         3.092534         1.668054
 H        -0.408546         2.738116         0.931321
 H        -1.012725         2.617033         3.352778
 H        -1.389448         1.071808         4.034877
 H         1.321683         1.339941         2.369592
 H         0.520886        -0.036070         3.022500
