19
Iteration:  3945charge 0 multiplicity 1
 O         0.660490        -0.183442         0.151047
 C        -0.318653         0.462400         1.004401
 C        -1.697452        -0.094599         1.453016
 C        -1.857290         1.429124         1.919635
 C        -3.005356         2.127806         1.290729
 O        -2.221752         2.207641         0.028211
 C        -0.960077         1.872892         0.713198
 C        -0.963525         1.535830         3.131103
 C         0.308811         0.896109         2.323679
 H         0.182077        -0.396076        -0.711553
 H        -2.356108        -0.380038         0.591695
 H        -1.620570        -0.864906         2.261743
 H        -3.954521         1.550255         1.188596
 H        -3.256473         3.124207         1.517728
 H        -0.230005         2.639036         0.837855
 H        -0.665519         2.571225         3.399351
 H        -1.412028         0.976894         3.932176
 H         1.059065         1.809787         2.065194
 H         0.998715         0.223955         2.936178
