19
Iteration:  4039charge 0 multiplicity 1
 O         0.695269        -0.028652         0.064801
 C        -0.293912         0.438943         1.002567
 C        -1.693154        -0.138630         1.550107
 C        -1.961334         1.411245         1.946403
 C        -3.001149         2.268335         1.226011
 O        -2.250052         2.181951        -0.029333
 C        -1.036817         1.749337         0.762613
 C        -0.901267         1.547381         3.055461
 C         0.267087         0.805226         2.339147
 H         1.248501        -0.526938         0.636637
 H        -2.358321        -0.416809         0.756288
 H        -1.499095        -0.908089         2.286616
 H        -4.046671         1.949908         1.195323
 H        -3.064113         3.351743         1.745814
 H        -0.430194         2.682608         0.869865
 H        -0.646856         2.642944         3.230398
 H        -0.998907         0.965783         4.006993
 H         1.333680         1.371530         2.198065
 H         0.617139        -0.147298         2.820726
