19
Iteration:  4662charge 0 multiplicity 1
 O         0.679598        -0.097491         0.076617
 C        -0.273833         0.512089         1.033217
 C        -1.688810        -0.130562         1.419270
 C        -1.905662         1.380570         1.956594
 C        -2.978740         2.330676         1.308746
 O        -2.249635         2.109676        -0.000261
 C        -0.999268         1.820590         0.756375
 C        -0.958257         1.513220         3.064581
 C         0.313425         0.806135         2.391380
 H         0.148727        -0.926074        -0.140444
 H        -2.279348        -0.277551         0.437943
 H        -1.612615        -0.984257         2.226560
 H        -4.005971         2.010355         1.222285
 H        -2.912618         3.378569         1.584653
 H        -0.436881         2.746375         0.772058
 H        -0.823987         2.629293         3.306930
 H        -1.192758         1.301862         4.117511
 H         1.071496         1.636140         2.151782
 H         0.899297        -0.107262         2.848195
