19
Iteration:  1804charge 0 multiplicity 1
 O         0.561194        -0.106282         0.169654
 C        -0.294487         0.472126         1.017554
 C        -1.566505        -0.084872         1.637832
 C        -1.885762         1.403364         1.956777
 C        -3.097066         2.118384         1.227936
 O        -2.317334         1.912110        -0.005444
 C        -1.040914         1.884476         0.678368
 C        -0.829215         1.590021         3.074089
 C         0.418126         1.125639         2.232558
 H         0.188674        -0.829931        -0.416933
 H        -2.162998        -0.520305         0.834419
 H        -1.456859        -0.661221         2.523536
 H        -3.930733         1.484622         1.308570
 H        -3.254455         3.320447         1.433291
 H        -0.409615         2.791818         0.666940
 H        -0.722952         2.559566         3.602937
 H        -1.056597         0.717658         3.748641
 H         1.055302         1.959507         1.911236
 H         1.232209         0.567021         2.772074
