19
Iteration:  4408charge 0 multiplicity 1
 O         0.514456        -0.028296         0.051788
 C        -0.238259         0.542634         1.075692
 C        -1.618912         0.061083         1.449401
 C        -1.809812         1.549566         1.884344
 C        -2.996130         2.186817         1.260793
 O        -2.372099         1.971674        -0.066187
 C        -0.929385         1.914154         0.703610
 C        -0.894127         1.518466         3.106508
 C         0.354452         0.669556         2.484461
 H         0.867808        -0.894433         0.233027
 H        -2.201041        -0.300652         0.585365
 H        -1.785827        -0.642668         2.349585
 H        -3.894831         1.612272         1.267268
 H        -3.350625         3.221354         1.499293
 H        -0.353562         2.744930         0.619479
 H        -0.689747         2.581821         3.449783
 H        -1.211407         1.034939         4.075256
 H         1.376327         1.119258         2.664873
 H         0.385985        -0.474287         2.811293
