19
Iteration:  2501charge 0 multiplicity 1
 O         0.689328        -0.162995         0.179859
 C        -0.313397         0.491393         0.911468
 C        -1.579475        -0.142657         1.495446
 C        -1.849878         1.442048         1.975479
 C        -2.986256         2.203455         1.276924
 O        -2.410743         1.958557         0.003916
 C        -1.120899         1.809350         0.733827
 C        -0.857400         1.588232         3.129210
 C         0.372321         1.091289         2.270133
 H         0.317797        -0.581498        -0.627309
 H        -2.405267        -0.543775         0.850278
 H        -1.408117        -0.882882         2.331162
 H        -3.978882         1.842203         1.417235
 H        -2.756689         3.323857         1.514182
 H        -0.535641         2.801703         0.586840
 H        -0.612592         2.590260         3.543009
 H        -1.138876         1.093261         4.089181
 H         1.001791         1.947261         2.105524
 H         0.913889         0.271887         2.652809
