19
Iteration:  2190charge 0 multiplicity 1
 O         0.551300        -0.217395         0.108571
 C        -0.284067         0.481002         1.012861
 C        -1.505523        -0.116536         1.545454
 C        -1.838195         1.396517         1.933583
 C        -3.017766         1.973008         1.277307
 O        -2.344971         2.059454        -0.003069
 C        -1.048736         1.822384         0.701434
 C        -0.816156         1.738978         3.103907
 C         0.369842         1.129372         2.333757
 H        -0.193941        -0.324820        -0.595018
 H        -2.329385        -0.238953         0.881745
 H        -1.440969        -0.907972         2.215660
 H        -3.955794         1.394028         1.264328
 H        -3.425978         2.942747         1.698928
 H        -0.453857         2.748027         0.604155
 H        -0.947261         2.823630         3.139936
 H        -0.912238         1.303058         4.073303
 H         1.047389         1.777093         2.032243
 H         0.840077         0.303109         3.010024
