19
Iteration:  2667
 O         0.712123        -0.226101         0.165640
 C        -0.203820         0.544740         1.006696
 C        -1.743920        -0.029733         1.552831
 C        -1.870390         1.500974         1.934119
 C        -3.094746         2.166146         1.295831
 O        -2.391840         1.929263         0.013021
 C        -1.063776         1.840443         0.641336
 C        -0.830132         1.548212         3.089362
 C         0.453058         1.042046         2.306140
 H         0.257815        -0.152459        -0.748164
 H        -2.406888        -0.306476         0.706988
 H        -1.717437        -0.722724         2.468787
 H        -4.022042         1.727960         1.465118
 H        -3.008824         3.268365         1.435942
 H        -0.557161         2.749143         0.486293
 H        -0.680687         2.434176         3.754196
 H        -1.018021         0.704664         3.826727
 H         1.114814         1.951040         2.026041
 H         0.997251         0.129553         2.719085
