19
Iteration:    17
 O         0.498005        -0.104964         0.156652
 C        -0.325471         0.605285         0.965727
 C        -1.417316        -0.101676         1.795339
 C        -1.872953         1.387693         1.964919
 C        -3.147521         2.004615         1.206096
 O        -2.397812         1.835058        -0.003614
 C        -1.153186         1.752646         0.638393
 C        -0.742139         1.686959         3.028747
 C         0.469142         1.281468         2.155176
 H         1.379602        -0.174209         0.636935
 H        -2.141211        -0.576760         1.041511
 H        -1.131404        -0.838101         2.599215
 H        -4.113491         1.407437         1.117958
 H        -3.515217         3.048135         1.338814
 H        -0.512364         2.729829         0.389096
 H        -0.668323         2.618488         3.646392
 H        -0.811628         0.883943         3.909131
 H         1.395455         1.921317         2.107832
 H         0.613385         0.286082         2.617817
