19
Iteration:  4005
 O         0.513092        -0.018946        -0.036723
 C        -0.323491         0.536980         1.043674
 C        -1.723263         0.023516         1.435816
 C        -1.854392         1.428125         1.957980
 C        -2.949476         2.130024         1.227556
 O        -2.191474         1.971518        -0.017570
 C        -0.891393         1.860657         0.721832
 C        -0.956627         1.545484         3.150814
 C         0.327884         0.853067         2.461536
 H         0.849871        -0.874094         0.299864
 H        -2.380301        -0.139348         0.622921
 H        -1.723307        -0.838523         2.086678
 H        -3.913039         1.588769         1.401551
 H        -2.944393         3.207119         1.570495
 H        -0.378314         2.790460         0.754086
 H        -0.795617         2.556053         3.522909
 H        -1.222291         0.940345         4.070827
 H         1.261855         1.485709         2.491910
 H         0.386145        -0.092254         2.957326
