19
Iteration:  2284charge 0 multiplicity 1
 O         0.537705        -0.110343         0.043690
 C        -0.272023         0.546709         1.014970
 C        -1.601047        -0.080971         1.577360
 C        -1.797943         1.444474         2.029450
 C        -2.993704         2.183448         1.254774
 O        -2.327703         1.777748        -0.066072
 C        -1.087212         1.805685         0.710851
 C        -0.860052         1.625213         3.206338
 C         0.424323         1.088238         2.323285
 H         0.011304        -0.014159        -0.739499
 H        -2.419697        -0.369960         0.846181
 H        -1.336106        -0.878021         2.347832
 H        -4.073911         1.888235         1.358649
 H        -3.069332         3.238640         1.282179
 H        -0.602442         2.718646         0.479675
 H        -0.699096         2.661209         3.538047
 H        -1.161817         0.878141         3.998554
 H         1.199497         1.995903         1.981115
 H         0.882097         0.232585         2.775322
