19
Iteration:   914charge 0 multiplicity 1
 O         0.634895        -0.187860         0.096641
 C        -0.352058         0.474054         1.008600
 C        -1.578368        -0.068886         1.550919
 C        -1.845202         1.513105         1.992013
 C        -3.165400         1.933149         1.278555
 O        -2.410619         1.954708         0.034549
 C        -1.106279         1.805238         0.650620
 C        -0.688881         1.771866         3.086797
 C         0.457808         1.128927         2.238552
 H         1.309314        -0.654340         0.537114
 H        -2.476403        -0.431749         1.019361
 H        -1.459919        -0.623985         2.406366
 H        -4.027640         1.244499         1.232932
 H        -3.618851         2.854611         1.576677
 H        -0.452704         2.706726         0.293440
 H        -0.678508         2.849707         3.453791
 H        -0.958272         1.297564         4.053182
 H         1.124262         1.880811         1.765619
 H         0.823699         0.308352         2.797475
