19
Iteration:   927
 O         0.559634        -0.099365         0.116107
 C        -0.313988         0.533554         0.958580
 C        -1.668706        -0.017775         1.698468
 C        -1.799443         1.475460         2.002509
 C        -3.134723         1.902579         1.246045
 O        -2.425622         1.950227        -0.004986
 C        -1.034877         1.762228         0.582096
 C        -0.727823         1.706504         3.132598
 C         0.445264         1.122107         2.234367
 H         1.000086        -0.789871         0.734084
 H        -2.259037        -0.382637         0.869755
 H        -1.557775        -0.834862         2.433731
 H        -3.871790         1.066946         1.305962
 H        -3.560835         2.916851         1.403771
 H        -0.369380         2.690084         0.246644
 H        -0.408592         2.760179         3.225552
 H        -0.838507         1.092051         4.121036
 H         1.176415         1.944341         1.925741
 H         1.181841         0.502959         2.609021
