19
Iteration:  3795charge 0 multiplicity 1
 O         0.584688        -0.194139         0.183388
 C        -0.305185         0.459497         0.979594
 C        -1.678568        -0.005317         1.467295
 C        -1.829528         1.506151         1.905048
 C        -3.037199         2.113479         1.325126
 O        -2.307979         2.093092         0.023206
 C        -0.982930         1.789915         0.642858
 C        -0.835107         1.588540         3.114556
 C         0.310978         0.908140         2.300977
 H         1.374206         0.433567         0.065272
 H        -2.334711        -0.209013         0.619691
 H        -1.655299        -0.878475         2.064138
 H        -3.963072         1.504257         1.384716
 H        -3.199300         3.173989         1.675697
 H        -0.375996         2.828569         0.408511
 H        -0.660631         2.570250         3.526552
 H        -1.207799         0.944867         3.945223
 H         1.219584         1.436211         2.385894
 H         0.498970        -0.120944         2.704640
