19
Iteration:   829
 O         0.569675        -0.036616         0.144597
 C        -0.364449         0.564550         1.049862
 C        -1.642374        -0.054720         1.687384
 C        -1.827087         1.541265         1.984518
 C        -3.075185         1.995395         1.220491
 O        -2.339571         1.800507        -0.031112
 C        -1.056505         1.817998         0.585570
 C        -0.698402         1.630443         3.089834
 C         0.422738         1.089497         2.281227
 H        -0.020664        -0.387444        -0.606171
 H        -2.388594        -0.374944         0.914809
 H        -1.506217        -0.723991         2.557679
 H        -3.922604         1.267614         1.310371
 H        -3.349403         3.090768         1.376522
 H        -0.397902         2.701290         0.568240
 H        -0.599938         2.674504         3.458053
 H        -0.992052         0.951397         3.972223
 H         1.344748         1.724817         2.000318
 H         0.882817         0.233672         2.758777
