19
Iteration:  1291
 O         0.529047        -0.134494         0.102511
 C        -0.313302         0.562238         0.978827
 C        -1.642071        -0.095108         1.685276
 C        -1.817315         1.372847         2.034594
 C        -3.059551         1.963375         1.181441
 O        -2.256624         1.887601        -0.082033
 C        -1.097348         1.843610         0.716798
 C        -0.775086         1.753110         3.144786
 C         0.444437         1.097446         2.275474
 H         0.062709         0.019934        -0.801612
 H        -2.440046        -0.409255         1.016441
 H        -1.478281        -0.714029         2.545569
 H        -3.948013         1.301785         1.438350
 H        -3.346847         3.043822         1.468600
 H        -0.586224         2.808986         0.692534
 H        -0.718668         2.844208         3.180502
 H        -0.977820         1.220032         4.117195
 H         1.199666         1.982713         1.949955
 H         0.838043         0.266299         2.769804
