19
Iteration:  4753
 O         0.467821        -0.257947         0.200259
 C        -0.333426         0.587513         0.983009
 C        -1.636197        -0.105180         1.378837
 C        -1.895349         1.318795         1.946442
 C        -2.959287         2.162859         1.236794
 O        -2.196351         2.195162        -0.005588
 C        -0.978802         1.914501         0.818538
 C        -0.885146         1.514039         3.071880
 C         0.316509         0.877542         2.352147
 H         0.988749         0.318420        -0.346947
 H        -2.247926        -0.498684         0.626827
 H        -1.381332        -0.767157         2.139694
 H        -3.969170         1.708929         1.124780
 H        -3.050308         3.135366         1.597974
 H        -0.344589         2.745958         0.948239
 H        -0.758544         2.531156         3.323302
 H        -1.125905         1.165536         4.061053
 H         0.959210         1.726873         2.079580
 H         0.877654         0.085996         2.793147
