19
Iteration:  4529charge 0 multiplicity 1
 O         0.517083        -0.012440         0.115095
 C        -0.323759         0.496874         1.069593
 C        -1.657919        -0.005835         1.416713
 C        -1.881475         1.410318         1.978462
 C        -2.988193         2.219842         1.229646
 O        -2.287366         2.037829        -0.055676
 C        -1.025495         1.871588         0.677388
 C        -0.750828         1.509741         3.148808
 C         0.332239         0.768273         2.409244
 H         0.910727        -0.874964         0.478708
 H        -2.220701        -0.102692         0.470932
 H        -1.848752        -0.983175         2.046451
 H        -4.017259         1.900481         1.028549
 H        -3.006450         3.313590         1.566259
 H        -0.521154         2.777277         0.525478
 H        -0.336626         2.608475         3.411537
 H        -1.198605         0.978348         4.057072
 H         1.282483         1.402470         2.325730
 H         0.658113        -0.275772         2.889290
