19
Iteration:  2530charge 0 multiplicity 1
 O         0.568374        -0.173106         0.182816
 C        -0.252050         0.540676         1.016668
 C        -1.601096        -0.075707         1.512686
 C        -1.835625         1.399246         1.923835
 C        -2.889295         2.208763         1.330226
 O        -2.428112         1.890022         0.015134
 C        -1.084949         1.808816         0.613736
 C        -0.883122         1.489771         3.090942
 C         0.392319         1.189561         2.329853
 H         0.295497        -0.055621        -0.691929
 H        -2.180297        -0.363707         0.653857
 H        -1.650181        -0.737758         2.331126
 H        -3.992199         1.871081         1.513785
 H        -2.645871         3.212717         1.503657
 H        -0.509257         2.607739         0.243551
 H        -0.778069         2.530364         3.450761
 H        -1.148340         0.799873         3.902184
 H         1.021835         2.089172         2.233715
 H         1.021157         0.227145         2.793813
