19
Iteration:  4889
 O         0.541142        -0.224383         0.108807
 C        -0.318074         0.509202         1.043617
 C        -1.610879        -0.090655         1.436555
 C        -1.884025         1.422683         1.989101
 C        -3.052392         2.209540         1.186955
 O        -2.228045         2.146046        -0.062280
 C        -1.037366         1.887851         0.788028
 C        -0.865311         1.545411         3.121459
 C         0.421068         0.883918         2.409062
 H         0.045666        -0.300460        -0.747193
 H        -2.260549        -0.529412         0.673603
 H        -1.424970        -0.826631         2.209661
 H        -3.985105         1.744917         0.915280
 H        -3.214739         3.239165         1.479014
 H        -0.468104         2.761068         0.862326
 H        -0.560382         2.539842         3.575068
 H        -1.081645         1.073680         4.102791
 H         1.253067         1.559123         2.402686
 H         0.689270        -0.028413         2.996094
