19
Iteration:  2035charge 0 multiplicity 1
 O         0.618204        -0.113897         0.151695
 C        -0.277925         0.534597         0.988743
 C        -1.574752        -0.008531         1.547648
 C        -1.780207         1.498145         2.023934
 C        -3.050094         2.131989         1.290641
 O        -2.400900         1.802411        -0.068013
 C        -1.091966         1.855414         0.642304
 C        -0.797154         1.576818         3.213428
 C         0.372075         1.053696         2.273793
 H         0.061088        -0.445157        -0.532777
 H        -2.306675        -0.293219         0.799774
 H        -1.482997        -0.714200         2.370847
 H        -4.075592         1.700482         1.223443
 H        -3.245263         3.208973         1.220429
 H        -0.590328         2.769893         0.538187
 H        -0.693359         2.659081         3.457728
 H        -1.088694         0.879007         4.034497
 H         1.183826         1.833727         1.978449
 H         0.999935         0.068031         2.720893
