19
Iteration:  3922charge 0 multiplicity 1
 O         0.663933        -0.262121         0.167912
 C        -0.292429         0.524980         0.971335
 C        -1.668591        -0.094548         1.331200
 C        -1.897044         1.353478         1.952079
 C        -2.986653         2.202364         1.303303
 O        -2.306784         2.144337         0.012903
 C        -1.070246         1.801772         0.710331
 C        -0.856188         1.600130         3.116616
 C         0.298356         0.943833         2.401845
 H         0.999146         0.368023        -0.472819
 H        -2.384227        -0.136646         0.483311
 H        -1.697975        -0.953042         2.072357
 H        -4.019640         1.897481         1.183263
 H        -2.955414         3.181255         1.762121
 H        -0.370966         2.671179         0.836052
 H        -0.661044         2.716136         3.235106
 H        -1.069864         1.100193         4.040726
 H         1.374067         1.485824         2.416721
 H         0.578402        -0.043085         3.021923
