19
Iteration:  4676charge 0 multiplicity 1
 O         0.678134        -0.080359         0.106510
 C        -0.343422         0.477884         0.886741
 C        -1.694491        -0.070894         1.423698
 C        -1.906183         1.386892         1.990015
 C        -2.937991         2.296445         1.211546
 O        -2.202863         1.987848         0.008535
 C        -1.045772         1.902664         0.848346
 C        -0.887661         1.546417         3.167544
 C         0.262398         0.844490         2.343559
 H         0.334026        -0.656026        -0.585624
 H        -2.464938        -0.401653         0.770701
 H        -1.642406        -0.822696         2.168940
 H        -4.064007         2.142601         1.130131
 H        -2.677461         3.323639         1.561179
 H        -0.568978         2.815695         0.985862
 H        -0.589352         2.594437         3.323668
 H        -1.138350         0.938613         4.056386
 H         1.208084         1.423814         2.331596
 H         0.478050        -0.090606         2.870131
