19
Iteration:   112charge 0 multiplicity 1
 O         0.664599         0.070093         0.074591
 C        -0.301506         0.530793         0.994938
 C        -1.642334        -0.092943         1.726420
 C        -1.831634         1.505678         1.990638
 C        -3.193693         2.035951         1.225611
 O        -2.378716         1.754393         0.029732
 C        -1.046079         1.702597         0.619890
 C        -0.766431         1.752391         3.082472
 C         0.443737         1.110732         2.237147
 H         0.639356        -0.916028        -0.116323
 H        -2.437318        -0.537511         1.020768
 H        -1.520279        -0.773771         2.586343
 H        -4.064322         1.323410         1.371777
 H        -3.605317         3.018002         1.389856
 H        -0.389016         2.421653         0.250514
 H        -0.592125         2.750580         3.399893
 H        -0.886695         1.366667         4.126213
 H         1.230968         1.714269         1.824811
 H         0.941516         0.296020         2.861821
