19
Iteration:   539
 O         0.511566        -0.193035         0.126935
 C        -0.240466         0.543551         1.001271
 C        -1.523407        -0.056871         1.624216
 C        -1.815217         1.405268         1.960965
 C        -3.109732         1.913565         1.219761
 O        -2.371615         2.002302        -0.020057
 C        -1.062419         1.882858         0.680375
 C        -0.782620         1.733888         3.068909
 C         0.364893         1.024300         2.285194
 H         1.025135         0.403359        -0.491118
 H        -2.358067        -0.406821         0.966988
 H        -1.441935        -0.669467         2.532475
 H        -3.901976         1.125039         1.313905
 H        -3.411260         2.909535         1.598531
 H        -0.504529         2.773007         0.630956
 H        -0.571740         2.788859         3.232669
 H        -0.980295         1.294260         4.097361
 H         1.241879         1.700522         2.198943
 H         0.522506         0.161995         3.028453
