19
Iteration:  2408charge 0 multiplicity 1
 O         0.616600        -0.048985         0.110946
 C        -0.305971         0.469713         1.028268
 C        -1.704520        -0.118632         1.562209
 C        -1.818474         1.502394         1.980655
 C        -2.997227         2.148486         1.308586
 O        -2.317286         1.876916        -0.035375
 C        -1.030528         1.734168         0.684664
 C        -0.827294         1.576217         3.127353
 C         0.352292         1.108521         2.256593
 H         0.112517        -0.071126        -0.706124
 H        -2.465338        -0.446833         0.892923
 H        -1.672516        -0.764664         2.421265
 H        -4.102324         1.839426         1.428871
 H        -2.739591         3.151629         1.485249
 H        -0.413832         2.511110         0.447293
 H        -0.675624         2.512705         3.645284
 H        -1.021695         0.940515         3.960653
 H         0.900511         2.039471         1.916467
 H         1.107376         0.377924         2.831612
