19
Iteration:  3231charge 0 multiplicity 1
 O         0.551641        -0.201396         0.183512
 C        -0.321561         0.521969         0.983202
 C        -1.587798        -0.095305         1.476219
 C        -1.835553         1.386853         1.948705
 C        -2.976567         2.084871         1.283308
 O        -2.339304         2.000684        -0.030181
 C        -1.080497         1.800664         0.693296
 C        -0.840895         1.677343         3.106891
 C         0.448488         1.092231         2.359927
 H         0.131025        -0.057001        -0.691455
 H        -2.400188        -0.408916         0.754802
 H        -1.580841        -0.897154         2.249984
 H        -3.935160         1.461183         1.170425
 H        -3.190646         3.117912         1.812066
 H        -0.540941         2.865185         0.691520
 H        -0.703028         2.671451         3.440587
 H        -0.991789         1.143999         4.060600
 H         1.106519         1.827151         1.985143
 H         0.878612         0.251916         2.768719
