19
Iteration:  1725
 O         0.637505        -0.100171         0.112454
 C        -0.306589         0.508976         1.038403
 C        -1.637847        -0.062549         1.560619
 C        -1.791881         1.552094         1.999421
 C        -3.030847         1.954379         1.235970
 O        -2.396676         1.878573        -0.046157
 C        -1.088506         1.907891         0.670852
 C        -0.753700         1.742630         3.112385
 C         0.415478         0.938635         2.328700
 H         0.058624        -0.480735        -0.611093
 H        -2.513793        -0.376390         0.948570
 H        -1.480721        -0.718978         2.454536
 H        -3.935853         1.429409         1.369423
 H        -3.522642         3.004779         1.510266
 H        -0.456676         2.734947         0.495263
 H        -0.476402         2.823786         3.221650
 H        -1.277697         1.447079         3.996029
 H         1.210784         1.623653         2.296123
 H         0.709813        -0.055313         2.813479
