19
Iteration:  3764
 O         0.602097        -0.184340         0.095507
 C        -0.262469         0.489999         0.993724
 C        -1.694792        -0.017826         1.471781
 C        -1.871280         1.487462         1.910848
 C        -3.058845         2.178415         1.257223
 O        -2.315194         1.993301        -0.008157
 C        -1.062039         1.941716         0.698703
 C        -0.792204         1.528991         3.133545
 C         0.364039         0.924636         2.340343
 H         1.151795        -0.762241         0.622681
 H        -2.360691        -0.257156         0.633433
 H        -1.577525        -0.840270         2.116781
 H        -3.984165         1.794429         1.364969
 H        -3.093281         3.243108         1.605654
 H        -0.603512         2.937115         0.698356
 H        -0.561746         2.527238         3.442331
 H        -1.073472         0.930530         4.060841
 H         1.174863         1.644154         2.423135
 H         0.700794        -0.166503         2.862328
