19
Iteration:  4670
 O         0.683049        -0.092527         0.085385
 C        -0.276352         0.495368         0.961789
 C        -1.689912        -0.099217         1.416816
 C        -1.896359         1.343184         1.971000
 C        -2.971586         2.329889         1.252609
 O        -2.213682         2.021270         0.013681
 C        -1.053383         1.902539         0.826750
 C        -0.915530         1.554920         3.143425
 C         0.256894         0.818269         2.336735
 H         0.347622        -0.860695        -0.463643
 H        -2.512843        -0.387024         0.718592
 H        -1.650754        -0.907410         2.217570
 H        -4.045946         2.208064         1.186103
 H        -2.777918         3.406780         1.455470
 H        -0.357600         2.849111         1.005675
 H        -0.662873         2.616219         3.160396
 H        -1.205566         1.032460         4.063643
 H         1.088845         1.519859         2.241326
 H         0.663283        -0.082808         2.832572
