19
Iteration:   107charge 0 multiplicity 1
 O         0.730441         0.034801         0.079990
 C        -0.235949         0.506799         0.995518
 C        -1.679534        -0.057444         1.713789
 C        -1.851759         1.497935         2.003566
 C        -3.232874         2.004263         1.242548
 O        -2.402315         1.774496         0.002547
 C        -1.108533         1.738544         0.651125
 C        -0.773177         1.773480         3.073910
 C         0.480853         1.074804         2.230793
 H         0.489123        -0.851322        -0.206631
 H        -2.377537        -0.613594         1.162748
 H        -1.434084        -0.681793         2.580412
 H        -4.096748         1.399072         1.415784
 H        -3.566591         3.093895         1.406641
 H        -0.373999         2.573893         0.251662
 H        -0.514738         2.910047         3.264453
 H        -0.857315         1.202796         3.998160
 H         1.377832         1.688254         1.908824
 H         0.751393         0.264383         2.872683
