19
Iteration:  1295charge 0 multiplicity 1
 O         0.518347        -0.138143         0.086542
 C        -0.268107         0.565878         0.987886
 C        -1.649707        -0.079366         1.674110
 C        -1.805877         1.373811         2.033441
 C        -3.087689         1.983899         1.197126
 O        -2.248397         1.869479        -0.061869
 C        -1.112032         1.855722         0.723889
 C        -0.809151         1.743639         3.137654
 C         0.455372         1.102963         2.259499
 H         0.043195        -0.190441        -0.720508
 H        -2.434136        -0.467272         1.020458
 H        -1.442204        -0.819585         2.528767
 H        -3.933947         1.365156         1.189641
 H        -3.207755         2.983725         1.508313
 H        -0.566359         2.852843         0.549953
 H        -0.607663         2.879625         3.286381
 H        -1.027101         1.294153         4.097661
 H         0.990806         1.973701         2.086302
 H         1.030950         0.253945         2.806593
