19
Iteration:  3050
 O         0.619670        -0.230522         0.214157
 C        -0.254237         0.568213         0.910693
 C        -1.554199         0.001279         1.479327
 C        -1.768250         1.455567         1.953487
 C        -3.025592         2.075837         1.389514
 O        -2.467632         1.962329        -0.018316
 C        -1.072609         1.806177         0.625899
 C        -0.850294         1.637694         3.090009
 C         0.368729         1.011153         2.353330
 H         0.530152        -0.014723        -0.712806
 H        -2.201753        -0.221899         0.643566
 H        -1.625465        -0.736859         2.255629
 H        -4.089876         1.624345         1.333858
 H        -3.066492         3.138771         1.771004
 H        -0.486355         2.804768         0.343388
 H        -0.596028         2.671652         3.389423
 H        -1.141874         1.093678         3.971716
 H         1.281573         1.585513         2.331516
 H         0.674843         0.061425         2.827650
