19
Iteration:  3873charge 0 multiplicity 1
 O         0.578215        -0.060112        -0.009357
 C        -0.300031         0.496726         0.985575
 C        -1.695713         0.040829         1.552788
 C        -1.818671         1.541297         2.009296
 C        -3.006575         2.126235         1.213683
 O        -2.223557         1.995372        -0.064315
 C        -1.019917         1.851624         0.693630
 C        -0.899825         1.507856         3.243963
 C         0.312671         0.846805         2.370283
 H         0.926206        -0.920053         0.395664
 H        -2.352201         0.010016         0.670244
 H        -1.815421        -0.736413         2.264623
 H        -3.865065         1.412887         1.263451
 H        -3.229491         3.244646         1.439215
 H        -0.365357         2.861440         0.405376
 H        -0.730849         2.476295         3.661015
 H        -1.149029         0.734566         4.037893
 H         1.117224         1.465275         2.298076
 H         0.762956        -0.049019         2.816376
