19
Iteration:  4038
 O         0.692133        -0.018860         0.060386
 C        -0.308210         0.427374         1.008086
 C        -1.680355        -0.138507         1.549756
 C        -1.952937         1.414106         1.944830
 C        -3.003182         2.276207         1.220756
 O        -2.246908         2.181936        -0.029944
 C        -1.032901         1.747012         0.754747
 C        -0.895231         1.546700         3.059673
 C         0.253438         0.800414         2.347279
 H         1.244625        -0.527140         0.621756
 H        -2.351398        -0.400860         0.772824
 H        -1.489620        -0.910403         2.285028
 H        -4.072648         1.918171         1.240048
 H        -3.041835         3.309091         1.713828
 H        -0.468341         2.637263         0.881906
 H        -0.622156         2.604350         3.214586
 H        -1.017345         0.984671         4.034517
 H         1.360629         1.438356         2.206261
 H         0.599222        -0.141663         2.822157
