19
Iteration:  2861
 O         0.519897        -0.170363         0.041970
 C        -0.294308         0.662222         0.961616
 C        -1.596439        -0.040951         1.502324
 C        -1.822025         1.501941         2.007281
 C        -3.003394         2.029637         1.209492
 O        -2.307143         1.887059        -0.025143
 C        -1.069639         1.892307         0.763234
 C        -0.825824         1.643171         3.141070
 C         0.420030         0.976042         2.435544
 H        -0.162333        -0.808555        -0.317286
 H        -2.266872        -0.345912         0.720518
 H        -1.377717        -0.884682         2.122032
 H        -3.964382         1.340910         1.177734
 H        -3.345093         3.135040         1.443086
 H        -0.614089         2.983815         0.587403
 H        -0.467304         2.674213         3.307055
 H        -1.121676         1.266905         4.147844
 H         1.219772         1.617054         2.418692
 H         0.833462        -0.024533         2.788139
