19
Iteration:  2940
 O         0.598246        -0.229178         0.199457
 C        -0.296396         0.567400         0.940276
 C        -1.601972        -0.024326         1.458968
 C        -1.771475         1.412754         1.930249
 C        -3.021001         2.039840         1.391864
 O        -2.412948         1.990530        -0.000946
 C        -1.044576         1.836714         0.647392
 C        -0.808182         1.642564         3.023650
 C         0.382359         1.010836         2.417414
 H         0.587115         0.001644        -0.774438
 H        -2.369261        -0.320755         0.712624
 H        -1.566165        -0.715078         2.296990
 H        -4.103073         1.531514         1.399625
 H        -3.246863         3.163223         1.526372
 H        -0.609886         2.946172         0.745068
 H        -0.700582         2.731398         3.094629
 H        -1.139316         1.216802         3.940318
 H         1.182562         1.625438         2.101759
 H         0.773332         0.193115         2.979631
