19
Iteration:  3807charge 0 multiplicity 1
 O         0.578715        -0.258558         0.115395
 C        -0.290816         0.505334         0.975672
 C        -1.635816        -0.091258         1.447605
 C        -1.796085         1.420412         1.953070
 C        -3.020184         2.157243         1.313221
 O        -2.302466         2.095534         0.010796
 C        -1.030860         1.896629         0.666303
 C        -0.888792         1.583441         3.082220
 C         0.326444         0.926479         2.439121
 H         0.971617         0.363193        -0.488065
 H        -2.309333        -0.333422         0.621051
 H        -1.678943        -0.748771         2.259647
 H        -3.918162         1.625624         1.154476
 H        -3.288564         3.225169         1.579043
 H        -0.259571         2.813802         0.608955
 H        -0.674593         2.616449         3.253767
 H        -1.210307         1.092010         4.037870
 H         1.198373         1.529127         2.287831
 H         0.617368         0.032551         3.052802
