19
Iteration:  3972charge 0 multiplicity 1
 O         0.491587        -0.144333         0.084872
 C        -0.337280         0.603429         0.992011
 C        -1.626308        -0.035809         1.460178
 C        -1.871331         1.447777         1.978431
 C        -3.018608         2.110762         1.139899
 O        -2.225725         2.103567        -0.062904
 C        -0.942203         1.966856         0.733097
 C        -0.893674         1.424040         3.250416
 C         0.422483         0.908755         2.410286
 H         0.178659        -1.102862         0.006186
 H        -2.231251        -0.322243         0.631722
 H        -1.470862        -0.829115         2.170432
 H        -4.023113         1.596591         1.092793
 H        -3.411716         3.213723         1.261595
 H        -0.258776         2.855265         0.822160
 H        -0.750209         2.376521         3.755972
 H        -1.320889         0.650325         3.964872
 H         1.277916         1.483471         2.421039
 H         0.798557         0.025364         2.857019
