19
Iteration:  3391
 O         0.569905        -0.081277         0.060640
 C        -0.195985         0.550152         1.005212
 C        -1.671484        -0.053881         1.451175
 C        -1.813922         1.461484         1.973031
 C        -3.048549         2.124045         1.274541
 O        -2.378593         1.843166         0.012687
 C        -0.977951         1.825767         0.734776
 C        -0.871212         1.643893         3.067540
 C         0.401883         1.017536         2.390907
 H         0.116280        -0.910414        -0.036789
 H        -2.296485        -0.294304         0.566307
 H        -1.621873        -0.886561         2.128530
 H        -4.012069         1.704520         1.510551
 H        -2.922428         3.219814         1.515825
 H        -0.417784         2.736083         0.603726
 H        -0.822914         2.737964         3.483668
 H        -1.090271         1.116111         4.010457
 H         1.195407         1.759636         2.080413
 H         0.774926         0.190488         3.105855
