19
Iteration:   937charge 0 multiplicity 1
 O         0.506197        -0.096489         0.109693
 C        -0.270869         0.574788         1.008298
 C        -1.588615        -0.033263         1.716687
 C        -1.770452         1.466680         1.983745
 C        -3.030298         1.947722         1.305758
 O        -2.389729         1.874453        -0.077544
 C        -1.141411         1.824068         0.613019
 C        -0.744036         1.671678         3.056540
 C         0.427477         1.115747         2.224740
 H         0.964668        -0.952088         0.397689
 H        -2.326778        -0.310163         0.960673
 H        -1.737865        -0.634995         2.578330
 H        -3.833586         1.188291         1.312479
 H        -3.548847         2.864121         1.539832
 H        -0.388905         2.712604         0.505764
 H        -0.765266         2.726266         3.448132
 H        -0.946325         1.069021         4.010883
 H         0.988481         2.057895         1.959050
 H         0.982007         0.416019         2.771058
