19
Iteration:  4369
 O         0.554927        -0.130639         0.090516
 C        -0.337527         0.496707         0.961676
 C        -1.731519        -0.076767         1.428916
 C        -1.822163         1.387139         1.944900
 C        -2.968939         2.131146         1.270418
 O        -2.153269         2.139515         0.049968
 C        -0.913537         1.826572         0.780763
 C        -0.962743         1.559632         3.136982
 C         0.264660         0.970537         2.269459
 H         0.771450        -1.050061         0.435947
 H        -2.426150        -0.287130         0.635342
 H        -1.592264        -0.918553         2.088706
 H        -3.991246         1.539874         1.305529
 H        -3.236115         3.162385         1.601472
 H        -0.367983         2.910417         0.827058
 H        -0.773793         2.594500         3.466951
 H        -1.197162         1.000727         4.036950
 H         1.111444         1.588088         1.965541
 H         0.775563         0.177975         2.779132
