19
Iteration:  4845charge 0 multiplicity 1
 O         0.514420        -0.070666        -0.052778
 C        -0.318059         0.465255         0.960259
 C        -1.707366        -0.125581         1.497590
 C        -1.826527         1.449654         1.982475
 C        -3.047652         2.150203         1.121005
 O        -2.156357         2.106339        -0.001322
 C        -0.958685         1.833275         0.764262
 C        -0.843264         1.626120         3.232215
 C         0.325106         0.867591         2.492386
 H         0.384800        -1.041149        -0.180970
 H        -2.391803        -0.363146         0.647320
 H        -1.771611        -0.866188         2.298285
 H        -3.961726         1.561877         1.097185
 H        -3.292255         3.190124         1.452952
 H        -0.372099         2.682888         0.747350
 H        -0.676155         2.656633         3.687673
 H        -1.193780         1.264915         4.222221
 H         1.100610         1.559446         2.214367
 H         0.803904        -0.013533         2.981587
