19
Iteration:  1828
 O         0.525904        -0.187361         0.095986
 C        -0.262035         0.617748         0.969420
 C        -1.563450        -0.009035         1.565948
 C        -1.875638         1.401624         2.003008
 C        -3.046204         1.995498         1.217095
 O        -2.322395         1.877111        -0.035248
 C        -1.087966         1.900236         0.685743
 C        -0.819723         1.688045         3.186481
 C         0.433365         1.072802         2.357634
 H        -0.082391        -0.659287        -0.565309
 H        -2.170118        -0.229984         0.731150
 H        -1.465924        -0.800260         2.273256
 H        -3.866131         1.263838         1.352794
 H        -3.276639         3.154889         1.363102
 H        -0.494940         2.820439         0.442086
 H        -0.535084         2.730762         3.420217
 H        -1.054889         1.067762         4.101958
 H         1.291316         1.760234         2.313001
 H         0.893413         0.243212         2.685784
