19
Iteration:  3448charge 0 multiplicity 1
 O         0.492381        -0.141209         0.042810
 C        -0.292360         0.576475         0.994794
 C        -1.676603        -0.018706         1.545443
 C        -1.793137         1.437831         1.933461
 C        -3.063893         2.049200         1.271684
 O        -2.297499         1.968171        -0.001955
 C        -1.030889         1.840825         0.696637
 C        -0.819369         1.636497         3.084791
 C         0.409573         0.918865         2.390344
 H         1.440245         0.001086         0.336304
 H        -2.201470        -0.286096         0.617111
 H        -1.807469        -0.757724         2.360743
 H        -3.965381         1.376343         1.253971
 H        -3.404421         3.009686         1.633168
 H        -0.470589         2.705711         0.763057
 H        -0.665303         2.703681         3.056029
 H        -1.114804         1.254674         4.106338
 H         1.226679         1.715217         2.102891
 H         0.874631         0.143197         3.016388
