19
Iteration:    16charge 0 multiplicity 1
 O         0.497447        -0.099790         0.150627
 C        -0.326594         0.606326         0.968184
 C        -1.416925        -0.098830         1.791340
 C        -1.865819         1.396009         1.969711
 C        -3.143239         2.002622         1.203628
 O        -2.399364         1.830452         0.006008
 C        -1.150515         1.743050         0.635931
 C        -0.742737         1.690496         3.020647
 C         0.468163         1.283857         2.158666
 H         1.381145        -0.209274         0.665677
 H        -2.173598        -0.562772         1.013222
 H        -1.142136        -0.851868         2.598053
 H        -4.127861         1.394825         1.119865
 H        -3.500704         3.033127         1.338783
 H        -0.500089         2.750646         0.398633
 H        -0.692644         2.612025         3.601944
 H        -0.832026         0.871260         3.932415
 H         1.391396         1.903915         2.132462
 H         0.584479         0.277313         2.621544
