19
Iteration:   919charge 0 multiplicity 1
 O         0.612521        -0.145015         0.090204
 C        -0.362554         0.475995         1.010669
 C        -1.638277        -0.043168         1.592464
 C        -1.843384         1.504837         1.999892
 C        -3.170712         1.898126         1.244125
 O        -2.415882         1.967717         0.034655
 C        -1.034617         1.776061         0.608528
 C        -0.693764         1.740682         3.119568
 C         0.476714         1.153952         2.239452
 H         1.167183        -0.706008         0.754273
 H        -2.420077        -0.384588         0.918242
 H        -1.329995        -0.735836         2.513738
 H        -4.006293         1.153011         1.272279
 H        -3.595291         2.944948         1.499941
 H        -0.558571         2.676661         0.188807
 H        -0.488027         2.769052         3.392954
 H        -0.956290         1.287003         4.147857
 H         1.081922         1.928145         1.762231
 H         0.988652         0.220545         2.683131
