19
Iteration:  1191charge 0 multiplicity 1
 O         0.583555        -0.159092         0.093665
 C        -0.303089         0.423692         1.000289
 C        -1.597437        -0.063400         1.691377
 C        -1.774008         1.489147         2.008021
 C        -3.066892         2.027126         1.240973
 O        -2.383046         1.941695        -0.022368
 C        -1.149676         1.789995         0.624838
 C        -0.852500         1.666464         3.134444
 C         0.405257         1.182320         2.205508
 H         1.488917        -0.217214         0.403822
 H        -2.188607        -0.427657         0.821645
 H        -1.489939        -0.821439         2.414496
 H        -4.100266         1.534705         1.131054
 H        -3.373435         3.075756         1.473387
 H        -0.455314         2.626560         0.678696
 H        -0.649578         2.612182         3.573806
 H        -0.919448         0.836884         3.953564
 H         1.291650         1.931314         1.729376
 H         1.072793         0.532777         2.722420
