19
Iteration:  2429charge 0 multiplicity 1
 O         0.496294        -0.144983         0.062061
 C        -0.277606         0.576170         1.013261
 C        -1.569699        -0.042329         1.569154
 C        -1.824220         1.429284         1.973764
 C        -3.013703         2.085311         1.252219
 O        -2.337021         1.885456        -0.022629
 C        -1.055750         1.849661         0.741792
 C        -0.849450         1.653238         3.086289
 C         0.461995         0.997739         2.380741
 H         0.073733        -0.046695        -0.863777
 H        -2.144117        -0.453779         0.745890
 H        -1.589763        -0.778213         2.395009
 H        -4.045346         1.593517         1.109156
 H        -3.188143         3.183213         1.441916
 H        -0.461484         2.690728         0.788356
 H        -0.868792         2.729552         3.285878
 H        -1.104065         1.255822         4.077128
 H         1.328164         1.749644         2.126945
 H         0.829825         0.026905         2.969715
