19
Iteration:  3318
 O         0.686113        -0.210167         0.110918
 C        -0.303228         0.465500         0.983849
 C        -1.644797        -0.128911         1.501727
 C        -1.859254         1.356719         1.990662
 C        -3.067525         2.061972         1.281620
 O        -2.377867         2.061182         0.007757
 C        -0.989807         1.840709         0.714584
 C        -0.823499         1.780062         3.097894
 C         0.327253         1.040493         2.350324
 H         0.413820        -0.214510        -0.861496
 H        -2.433078        -0.314703         0.707753
 H        -1.570230        -0.926286         2.295982
 H        -4.000563         1.331261         1.172041
 H        -3.296588         3.021659         1.788519
 H        -0.346410         2.757936         0.711793
 H        -0.634512         2.800420         3.147923
 H        -0.833042         1.466983         4.159139
 H         1.229702         1.666298         1.987992
 H         0.705782         0.186187         2.859309
