19
Iteration:  3516
 O         0.638953        -0.087564         0.197522
 C        -0.324497         0.442180         1.019017
 C        -1.700408        -0.138576         1.509055
 C        -1.803966         1.399345         1.938776
 C        -3.026265         2.159223         1.259046
 O        -2.337328         2.066710         0.009262
 C        -1.048836         1.781392         0.611060
 C        -0.810473         1.619436         3.140568
 C         0.383284         1.023741         2.337059
 H         0.434698        -0.257887        -0.701028
 H        -2.400459        -0.352177         0.680328
 H        -1.689173        -0.939637         2.320842
 H        -4.035466         1.588776         1.352373
 H        -3.240680         3.155226         1.484422
 H        -0.473644         2.619947         0.612180
 H        -0.676521         2.605928         3.521564
 H        -1.067089         0.877688         3.954907
 H         1.182581         1.852665         2.018702
 H         0.951883         0.137628         2.590131
