19
Iteration:  4148
 O         0.580345        -0.118106         0.058374
 C        -0.258221         0.383197         1.022493
 C        -1.733921        -0.090744         1.423013
 C        -1.914526         1.369207         1.932829
 C        -2.946952         2.163651         1.283918
 O        -2.209428         2.121338        -0.031090
 C        -0.968215         1.811632         0.795873
 C        -0.905237         1.658356         3.065396
 C         0.295617         0.847517         2.493145
 H         0.677580         0.575561        -0.667490
 H        -2.525715        -0.223053         0.659264
 H        -1.777118        -0.915710         2.110629
 H        -3.998758         1.685680         1.336090
 H        -2.862797         3.155721         1.505654
 H        -0.423200         2.698715         0.841043
 H        -0.548485         2.708499         3.101386
 H        -1.105228         1.302635         4.084195
 H         1.122846         1.676536         2.226719
 H         0.522216        -0.043748         3.078108
