19
Iteration:   279charge 0 multiplicity 1
 O         0.534672        -0.092184        -0.047660
 C        -0.319976         0.505984         0.990581
 C        -1.690374         0.061740         1.684457
 C        -1.851126         1.472740         2.010391
 C        -3.121643         1.927013         1.201071
 O        -2.347667         1.843580        -0.013539
 C        -1.009174         1.762316         0.702110
 C        -0.739281         1.650483         3.116890
 C         0.451069         1.180092         2.350091
 H         1.345462        -0.429482         0.383191
 H        -2.341236        -0.148349         0.859556
 H        -1.568663        -0.694434         2.539693
 H        -3.916542         1.143518         1.035625
 H        -3.384808         2.968729         1.460067
 H        -0.408762         2.596067         0.486149
 H        -0.659717         2.667290         3.445829
 H        -0.960117         1.081498         4.101047
 H         1.157708         1.962725         1.918031
 H         0.938569         0.495164         2.987133
