19
Iteration:  4988
 O         0.453710        -0.072699         0.069054
 C        -0.333311         0.534489         1.051719
 C        -1.646721        -0.036298         1.402375
 C        -1.868171         1.408826         1.982031
 C        -2.925459         2.053396         1.189890
 O        -2.125131         2.104810        -0.001076
 C        -0.951716         1.863357         0.797658
 C        -0.900466         1.578496         3.168684
 C         0.288034         0.872361         2.411917
 H        -0.078082        -0.811904        -0.329911
 H        -2.317523        -0.132492         0.579187
 H        -1.591364        -0.845651         2.147753
 H        -3.847949         1.546091         1.032845
 H        -3.175850         3.062538         1.400443
 H        -0.200931         2.682174         0.491159
 H        -0.727918         2.729483         3.368712
 H        -1.078342         0.991945         4.150814
 H         1.103899         1.480323         2.107793
 H         0.551563        -0.110766         2.828559
