19
Iteration:   365charge 0 multiplicity 1
 O         0.642869        -0.128969         0.237965
 C        -0.326860         0.589667         0.988624
 C        -1.648881        -0.084501         1.581814
 C        -1.830798         1.460755         2.002355
 C        -3.033083         2.053122         1.280005
 O        -2.413777         1.860279        -0.069851
 C        -1.090604         1.818552         0.586398
 C        -0.756459         1.628866         3.155691
 C         0.405806         1.110956         2.258149
 H         0.562116         0.049928        -0.683830
 H        -2.271581        -0.588992         0.859922
 H        -1.609996        -0.804728         2.434418
 H        -4.033162         1.498099         1.313314
 H        -3.255832         3.123893         1.485904
 H        -0.523424         2.836000         0.435790
 H        -0.550452         2.594836         3.581747
 H        -0.921606         0.898497         4.029779
 H         1.120729         1.841368         1.856531
 H         1.021510         0.309533         2.676444
