19
Iteration:  2326charge 0 multiplicity 1
 O         0.566179        -0.152578         0.099607
 C        -0.301036         0.489325         0.943128
 C        -1.589508        -0.068477         1.588752
 C        -1.853473         1.470798         1.998229
 C        -3.113228         1.934914         1.274238
 O        -2.284340         2.039840         0.006415
 C        -1.030153         1.858747         0.697686
 C        -0.815975         1.789824         3.085398
 C         0.408087         0.964448         2.307297
 H         0.235590        -0.513169        -0.703025
 H        -2.382012        -0.407604         0.840230
 H        -1.477406        -0.825694         2.436610
 H        -3.867151         1.161076         1.284068
 H        -3.691040         2.877202         1.614723
 H        -0.377682         2.702786         0.846621
 H        -0.725577         2.891713         3.070695
 H        -0.905094         1.287074         4.095872
 H         1.373585         1.569140         2.056185
 H         0.689479         0.182877         2.936837
