19
Iteration:  3506charge 0 multiplicity 1
 O         0.657424        -0.203899         0.211838
 C        -0.324138         0.479625         1.025755
 C        -1.608493        -0.069159         1.550795
 C        -1.839996         1.445023         1.892852
 C        -3.009577         2.141667         1.320467
 O        -2.374716         2.083598        -0.027546
 C        -1.042145         1.813485         0.666714
 C        -0.868440         1.548230         3.118492
 C         0.372160         1.031918         2.262157
 H         0.390664         0.139164        -0.632761
 H        -2.228754        -0.393251         0.686205
 H        -1.582158        -0.888360         2.332707
 H        -3.988815         1.608907         1.217427
 H        -3.110574         3.128797         1.615926
 H        -0.514157         2.685359         0.468713
 H        -0.821330         2.469440         3.678555
 H        -1.021382         0.753201         3.872394
 H         1.141121         1.825183         1.766198
 H         0.896291         0.298409         2.916166
