19
Iteration:  3043
 O         0.642597        -0.227651         0.146146
 C        -0.260934         0.514762         1.005271
 C        -1.609380         0.036275         1.508809
 C        -1.810241         1.438418         1.916975
 C        -3.010565         2.110660         1.376094
 O        -2.448482         1.934509         0.031888
 C        -1.038283         1.842395         0.611163
 C        -0.896011         1.616623         3.066995
 C         0.421693         1.023643         2.363087
 H         0.441161        -0.077355        -0.827612
 H        -2.233191        -0.227559         0.638490
 H        -1.367263        -0.847481         2.204911
 H        -3.991234         1.624836         1.524631
 H        -3.062975         3.190058         1.602126
 H        -0.528623         2.761976         0.342179
 H        -0.791228         2.651552         3.302512
 H        -1.233473         1.148346         3.999838
 H         1.242967         1.796672         2.405646
 H         0.697921         0.061624         2.695148
