19
Iteration:  4465charge 0 multiplicity 1
 O         0.454713        -0.103610         0.089783
 C        -0.304737         0.475451         1.032190
 C        -1.622082        -0.159649         1.498841
 C        -1.874870         1.386971         1.887815
 C        -3.028553         2.277649         1.260385
 O        -2.196421         2.172937        -0.042967
 C        -1.026296         1.802083         0.740148
 C        -0.874415         1.483707         3.059983
 C         0.398712         0.959514         2.421572
 H         0.987823        -0.909534         0.311973
 H        -2.244258        -0.438375         0.645317
 H        -1.697421        -0.950225         2.331143
 H        -3.966371         1.754555         0.942585
 H        -3.003386         3.316135         1.735024
 H        -0.475180         2.642172         1.162923
 H        -0.834259         2.610848         3.401047
 H        -1.221297         0.678365         3.751126
 H         1.136934         1.811120         2.196984
 H         1.004238         0.068679         2.866534
