19
Iteration:  4991
 O         0.448081        -0.075027         0.055886
 C        -0.333613         0.532477         1.029287
 C        -1.654141        -0.021650         1.406361
 C        -1.863388         1.403328         2.004041
 C        -2.929937         2.032598         1.190631
 O        -2.136197         2.111089        -0.012274
 C        -0.916292         1.885269         0.760983
 C        -0.903700         1.580894         3.197535
 C         0.271423         0.858620         2.444960
 H        -0.021889        -0.783525        -0.340871
 H        -2.365109        -0.036320         0.599264
 H        -1.574437        -0.747344         2.227472
 H        -3.811956         1.446296         1.080174
 H        -3.194600         3.063763         1.319677
 H        -0.199268         2.568308         0.488795
 H        -0.744407         2.621093         3.373144
 H        -1.020877         1.005186         4.050049
 H         1.127575         1.507269         2.116627
 H         0.610211        -0.078870         2.897970
