19
Iteration:   137charge 0 multiplicity 1
 O         0.439824        -0.079468         0.010632
 C        -0.240970         0.616023         1.011840
 C        -1.569892        -0.047241         1.625673
 C        -1.795811         1.410702         1.998547
 C        -2.977704         1.959846         1.302816
 O        -2.375294         1.703025        -0.106600
 C        -1.105387         1.809859         0.680436
 C        -0.855809         1.742777         3.121333
 C         0.423054         1.200946         2.298688
 H         1.068950        -0.703993         0.412968
 H        -2.283912        -0.486117         0.932624
 H        -1.362411        -0.768077         2.492358
 H        -4.015212         1.623476         1.541269
 H        -2.906973         3.018622         1.521501
 H        -0.633921         2.839282         0.587345
 H        -0.724367         2.733698         3.493763
 H        -1.031376         1.260662         4.115072
 H         1.130779         1.991988         1.908123
 H         1.021838         0.583019         2.956935
