19
Iteration:  2710
 O         0.564539        -0.108517         0.089899
 C        -0.290577         0.569346         1.020845
 C        -1.589577        -0.115089         1.551721
 C        -1.858215         1.365538         2.006416
 C        -3.056358         2.028929         1.229435
 O        -2.304822         2.047267        -0.015676
 C        -1.080628         1.862992         0.702890
 C        -0.725001         1.723646         3.035635
 C         0.386609         0.946086         2.385300
 H        -0.143547        -0.700613        -0.365182
 H        -2.223481        -0.406431         0.676903
 H        -1.538584        -0.959288         2.329031
 H        -3.915387         1.364125         0.911434
 H        -3.488156         2.923843         1.627452
 H        -0.591903         2.773342         0.763854
 H        -0.598470         2.827830         3.069407
 H        -1.027211         1.570877         4.084621
 H         1.436441         1.460621         2.414341
 H         0.342527        -0.053495         3.024688
