19
Iteration:  3544
 O         0.626344        -0.057966         0.045586
 C        -0.260816         0.504776         1.028255
 C        -1.627411        -0.012276         1.488474
 C        -1.867100         1.400266         2.002007
 C        -3.042196         2.094610         1.254411
 O        -2.287246         1.906483         0.007189
 C        -1.054209         1.913071         0.756821
 C        -0.846475         1.719717         3.065179
 C         0.309552         0.857081         2.356203
 H         0.342195        -0.899824        -0.341787
 H        -2.281128        -0.274531         0.680945
 H        -1.565023        -0.772107         2.247440
 H        -3.995411         1.636378         1.360691
 H        -3.057914         3.233210         1.535991
 H        -0.483408         2.991429         0.944642
 H        -0.650003         2.813560         3.221841
 H        -1.044756         1.210876         4.020876
 H         1.242726         1.297727         2.214105
 H         0.569111        -0.145128         2.764557
