19
Iteration:  1792
 O         0.662371        -0.133232         0.162155
 C        -0.308705         0.559861         1.016843
 C        -1.630322        -0.102167         1.629723
 C        -1.852857         1.433383         1.959954
 C        -3.008653         2.082383         1.266681
 O        -2.362563         1.976538        -0.029952
 C        -1.099304         1.740721         0.659355
 C        -0.844254         1.561231         3.118027
 C         0.432044         1.186501         2.246080
 H         0.131181        -0.705507        -0.450136
 H        -2.340866        -0.498019         0.865202
 H        -1.560370        -0.869974         2.396234
 H        -3.988544         1.703480         1.214824
 H        -3.203460         3.256183         1.536868
 H        -0.518244         2.588302         0.340254
 H        -0.732193         2.599688         3.506007
 H        -0.950423         0.973670         4.052896
 H         0.974479         2.062236         1.898306
 H         0.975689         0.246954         2.679718
