19
Iteration:  3521
 O         0.651446        -0.053820         0.191770
 C        -0.324800         0.460824         0.967917
 C        -1.727225        -0.151584         1.491946
 C        -1.816105         1.415017         2.003848
 C        -3.043272         2.141185         1.248752
 O        -2.324431         2.041329        -0.000873
 C        -1.058605         1.769739         0.620798
 C        -0.793344         1.600539         3.126756
 C         0.393949         1.013907         2.344999
 H         0.274235        -0.426530        -0.667731
 H        -2.468334        -0.358279         0.708841
 H        -1.765889        -0.864606         2.282638
 H        -3.936210         1.598060         1.316293
 H        -3.198956         3.248802         1.569615
 H        -0.241075         2.659953         0.704958
 H        -0.611418         2.709012         3.359562
 H        -1.150321         1.121654         4.032295
 H         1.127286         1.783655         2.195316
 H         1.009473         0.125907         2.698793
