19
Iteration:  3022
 O         0.596231        -0.111573         0.063297
 C        -0.255916         0.491581         0.966848
 C        -1.628012        -0.112712         1.535433
 C        -1.805663         1.468492         1.959770
 C        -3.023441         2.182098         1.309399
 O        -2.339794         1.872069        -0.025404
 C        -1.050283         1.806691         0.741254
 C        -0.851547         1.635393         3.128871
 C         0.357474         1.042374         2.342162
 H         0.095930        -0.393151        -0.679772
 H        -2.312531        -0.448056         0.732082
 H        -1.698313        -0.738006         2.507042
 H        -4.005816         1.835044         1.189431
 H        -3.019896         3.239793         1.528172
 H        -0.555997         2.692779         0.605263
 H        -0.602719         2.612237         3.534612
 H        -1.118870         1.007561         4.027549
 H         1.058486         1.897025         2.023030
 H         0.984027         0.346554         3.032201
