19
Iteration:   785charge 0 multiplicity 1
 O         0.530394        -0.237812        -0.003463
 C        -0.241976         0.535532         0.920692
 C        -1.546535        -0.102934         1.532636
 C        -1.808735         1.386039         1.917356
 C        -3.070262         2.017301         1.363114
 O        -2.367834         1.948591         0.062966
 C        -1.024776         1.810854         0.728398
 C        -0.874246         1.805607         3.006187
 C         0.402547         1.185380         2.388438
 H         0.903710        -1.051613         0.489088
 H        -2.314236        -0.309666         0.713122
 H        -1.540582        -0.810486         2.376964
 H        -3.954375         1.338919         1.410380
 H        -3.224488         3.089171         1.690849
 H        -0.590620         2.682296         0.363858
 H        -0.908326         2.918779         3.101447
 H        -1.210468         1.244608         3.949869
 H         1.324170         1.866441         2.587813
 H         0.716668         0.396569         2.985546
