19
Iteration:  3989charge 0 multiplicity 1
 O         0.461936        -0.104341        -0.004985
 C        -0.214803         0.556221         1.001642
 C        -1.602832         0.023239         1.374965
 C        -1.826008         1.545724         1.983592
 C        -3.032402         2.151936         1.192722
 O        -2.175633         1.950275        -0.024296
 C        -1.007607         1.937721         0.833240
 C        -0.923027         1.471120         3.219227
 C         0.294401         0.832515         2.455668
 H         0.472346        -1.095644         0.242789
 H        -2.225952        -0.146611         0.437582
 H        -1.729858        -0.789608         2.142755
 H        -3.947443         1.539566         0.968867
 H        -3.198597         3.214800         1.372933
 H        -0.453309         2.931597         0.676685
 H        -0.634133         2.488151         3.563736
 H        -1.307993         0.854298         4.007429
 H         1.194965         1.719187         2.357713
 H         0.834294        -0.074456         2.874079
