19
Iteration:  4732
 O         0.482034        -0.303831         0.065792
 C        -0.263811         0.569876         0.918766
 C        -1.630927        -0.036501         1.440470
 C        -1.824077         1.435110         1.987156
 C        -3.019218         2.092791         1.198738
 O        -2.182979         2.144146        -0.006690
 C        -0.953290         1.937029         0.757236
 C        -0.939484         1.567577         3.237665
 C         0.323290         0.889345         2.413001
 H         0.670935         0.302997        -0.724893
 H        -2.285318        -0.058884         0.628892
 H        -1.632796        -0.864526         2.038146
 H        -3.911196         1.393889         1.141605
 H        -3.370344         3.083450         1.498331
 H        -0.461017         2.788548         0.659142
 H        -0.752470         2.496465         3.733864
 H        -1.176004         0.926045         4.085899
 H         1.236259         1.440141         2.548688
 H         0.427104        -0.023976         2.919174
