19
Iteration:  3403
 O         0.565146         0.009720         0.050287
 C        -0.330199         0.512234         1.027016
 C        -1.640913        -0.080945         1.535395
 C        -1.858342         1.411587         1.933081
 C        -2.975556         2.112553         1.282968
 O        -2.346832         1.896535        -0.026869
 C        -1.046014         1.833733         0.690844
 C        -0.844763         1.666319         3.082380
 C         0.427584         0.940066         2.418244
 H         0.632589        -0.963940        -0.081507
 H        -2.445344        -0.441404         0.865142
 H        -1.487328        -0.738369         2.391387
 H        -4.023237         1.746183         1.293911
 H        -3.029345         3.198339         1.463387
 H        -0.552947         2.730327         0.506520
 H        -0.622882         2.770639         3.127246
 H        -1.124488         1.190812         4.055687
 H         1.368230         1.622044         2.295552
 H         0.843089         0.033996         2.976600
