19
Iteration:  2779charge 0 multiplicity 1
 O         0.616226        -0.225785         0.173122
 C        -0.201004         0.513516         1.012469
 C        -1.608325        -0.085353         1.523590
 C        -1.815032         1.443426         1.918041
 C        -3.057271         2.293474         1.285128
 O        -2.398847         1.861176         0.034023
 C        -1.110317         1.882726         0.663768
 C        -0.919008         1.495070         3.152009
 C         0.452241         1.078169         2.290685
 H         0.636227         0.002355        -0.799091
 H        -2.115777        -0.376543         0.546496
 H        -1.716844        -0.847645         2.330343
 H        -3.984568         1.880278         1.278604
 H        -3.082278         3.438534         1.404757
 H        -0.642551         2.822952         0.535256
 H        -0.872790         2.579181         3.387330
 H        -0.949064         0.895347         4.082351
 H         1.113895         2.026206         1.959876
 H         1.073865         0.340622         2.732040
