19
Iteration:  4937
 O         0.649118        -0.166875         0.265333
 C        -0.340935         0.499063         0.922170
 C        -1.659371        -0.064087         1.448467
 C        -1.754909         1.474019         1.881036
 C        -2.943995         2.243651         1.390775
 O        -2.337142         2.104255        -0.001802
 C        -0.945390         1.817192         0.573059
 C        -0.953216         1.496782         3.137384
 C         0.264165         0.863650         2.363380
 H         0.724805         0.000062        -0.674821
 H        -2.479688        -0.182955         0.697123
 H        -1.836659        -0.911189         2.178730
 H        -3.933346         1.748592         1.480821
 H        -3.086557         3.381594         1.424892
 H        -0.328289         2.678141         0.480589
 H        -0.756669         2.344262         3.708108
 H        -1.249115         0.816741         3.849439
 H         1.101915         1.621292         2.191867
 H         0.695091        -0.064140         2.768385
