19
Iteration:  4739charge 0 multiplicity 1
 O         0.459717        -0.283531         0.118534
 C        -0.323100         0.555705         0.915847
 C        -1.572370        -0.059695         1.406388
 C        -1.850809         1.414615         1.997218
 C        -3.011841         2.089976         1.210935
 O        -2.147562         2.153573         0.003581
 C        -0.984404         1.948698         0.735141
 C        -0.925552         1.546137         3.278494
 C         0.279318         0.920810         2.371215
 H         0.843468         0.090719        -0.712128
 H        -2.273155        -0.262200         0.534580
 H        -1.541354        -1.019113         2.082145
 H        -3.948425         1.614090         0.966245
 H        -3.231875         3.075034         1.622114
 H        -0.347823         2.985526         0.752018
 H        -0.647298         2.639894         3.389172
 H        -1.185220         0.973112         4.176720
 H         1.254169         1.514419         2.431747
 H         0.582819        -0.134695         2.736367
