19
Iteration:  1362
 O         0.682535        -0.113292         0.125380
 C        -0.265227         0.503640         0.973674
 C        -1.643897        -0.109127         1.553521
 C        -1.831847         1.539118         1.942883
 C        -3.096011         2.093689         1.380960
 O        -2.426139         1.887936         0.009197
 C        -1.104815         1.777147         0.659215
 C        -0.791223         1.732243         3.023330
 C         0.389799         1.032679         2.258251
 H         1.311681        -0.612117         0.769436
 H        -2.383584        -0.418152         0.741933
 H        -1.610925        -0.881030         2.405502
 H        -3.917118         1.414760         1.188907
 H        -3.307647         3.176010         1.478148
 H        -0.495282         2.758741         0.522234
 H        -0.525575         2.835015         3.267117
 H        -0.992576         1.190129         3.954131
 H         1.180515         1.706643         2.068855
 H         0.588281        -0.003796         2.855412
