19
Iteration:  1236
 O         0.550744        -0.259886         0.137221
 C        -0.213180         0.590741         0.966389
 C        -1.502279        -0.065276         1.477027
 C        -1.796941         1.452922         1.954065
 C        -3.034241         2.043445         1.317274
 O        -2.483244         1.811658         0.003393
 C        -1.085382         1.848109         0.659130
 C        -0.803755         1.803416         3.065128
 C         0.331838         1.055678         2.341828
 H         1.327450         0.330620        -0.056576
 H        -2.322330        -0.241734         0.737221
 H        -1.432782        -0.853016         2.201732
 H        -4.039381         1.672035         1.606704
 H        -3.092513         3.107644         1.731675
 H        -0.696613         2.833753         0.369714
 H        -0.708041         2.857997         3.399028
 H        -1.160546         1.146794         3.954760
 H         1.379065         1.652283         2.382921
 H         0.740576         0.295206         2.959634
