19
Iteration:  4422charge 0 multiplicity 1
 O         0.553416         0.003548        -0.001998
 C        -0.309540         0.521823         0.977234
 C        -1.697512        -0.050164         1.413651
 C        -1.752251         1.580259         1.964916
 C        -2.988655         2.174133         1.281631
 O        -2.226453         1.928429        -0.010804
 C        -0.983741         1.883584         0.696892
 C        -0.876369         1.557408         3.168965
 C         0.220768         0.751188         2.482368
 H         0.849548        -0.878855         0.397343
 H        -2.375806        -0.232670         0.595424
 H        -1.622854        -0.819339         2.213219
 H        -3.902101         1.583139         1.446614
 H        -2.923783         3.250671         1.370986
 H        -0.431373         2.887017         0.374606
 H        -0.384755         2.535534         3.483002
 H        -1.448349         0.979696         3.888801
 H         1.178257         1.325218         2.422629
 H         0.314104        -0.160395         3.088823
