19
Iteration:  1026
 O         0.624918        -0.137898         0.065738
 C        -0.306722         0.518349         0.930487
 C        -1.568155        -0.011506         1.660827
 C        -1.789039         1.466655         2.031047
 C        -3.134010         1.912142         1.299350
 O        -2.458093         1.901423        -0.099750
 C        -1.119486         1.800004         0.663993
 C        -0.698597         1.827766         3.098962
 C         0.408753         1.059977         2.263225
 H         1.098525        -0.688993         0.766831
 H        -2.386171        -0.324019         1.080629
 H        -1.593888        -0.696038         2.502908
 H        -4.052168         1.286699         1.321795
 H        -3.583706         2.893590         1.546527
 H        -0.567983         2.814473         0.426084
 H        -0.611578         2.868046         3.432042
 H        -0.885309         1.170143         4.064565
 H         1.372197         1.714278         2.137234
 H         0.859446         0.256878         2.789516
