19
Iteration:  2592
 O         0.520758        -0.110544         0.078246
 C        -0.287188         0.500920         1.066559
 C        -1.539739        -0.123417         1.515641
 C        -1.793901         1.436957         1.971045
 C        -3.086498         1.928850         1.290685
 O        -2.324832         2.068978        -0.080248
 C        -1.108835         1.960904         0.708631
 C        -0.755282         1.768381         3.080330
 C         0.378861         0.870737         2.406728
 H        -0.043235        -0.661778        -0.419198
 H        -2.176912        -0.492060         0.694233
 H        -1.496439        -0.894127         2.341258
 H        -3.909881         1.268223         1.188322
 H        -3.451706         3.048199         1.578835
 H        -0.315565         2.812402         0.502803
 H        -0.415782         2.790239         3.175604
 H        -1.004194         1.612468         4.144136
 H         1.345384         1.379688         2.268180
 H         0.480933         0.079298         2.992808
