19
Iteration:  2799
 O         0.701563        -0.237469         0.182907
 C        -0.297360         0.517174         0.967517
 C        -1.628049        -0.074313         1.498708
 C        -1.881574         1.433398         1.989559
 C        -3.013021         2.138819         1.338022
 O        -2.399280         1.999656        -0.035505
 C        -1.076039         1.782811         0.696765
 C        -0.831908         1.649646         3.083977
 C         0.343387         1.064404         2.300660
 H         0.603694         0.000328        -0.802669
 H        -2.392938        -0.463183         0.744804
 H        -1.385235        -0.918725         2.203754
 H        -4.063455         1.927941         1.267657
 H        -2.956619         3.075705         1.776490
 H        -0.514195         2.644075         0.651342
 H        -0.698636         2.657336         3.497266
 H        -1.052871         0.973155         3.909296
 H         1.158475         1.848557         1.940060
 H         0.913818         0.303337         2.866575
