19
Iteration:  4968charge 0 multiplicity 1
 O         0.594698        -0.156555         0.105454
 C        -0.269417         0.510955         0.976300
 C        -1.682305        -0.138622         1.446896
 C        -1.933885         1.345268         1.951364
 C        -3.036922         2.275009         1.225552
 O        -2.201233         2.097354        -0.045488
 C        -1.019128         1.919634         0.840475
 C        -0.892825         1.546838         3.089616
 C         0.398271         0.852016         2.426065
 H         0.135717        -0.701379        -0.590331
 H        -2.330200        -0.200416         0.617086
 H        -1.627220        -0.809411         2.313544
 H        -4.012988         1.908576         1.132173
 H        -3.058817         3.350682         1.394406
 H        -0.554035         2.798483         1.141998
 H        -0.687967         2.627876         3.219436
 H        -1.048458         1.017481         3.989311
 H         1.186040         1.630638         2.274284
 H         0.778004        -0.015955         2.984637
