19
Iteration:  3739
 O         0.461484        -0.090553         0.023005
 C        -0.291466         0.491117         1.009673
 C        -1.598602        -0.094245         1.494741
 C        -1.845997         1.409708         1.961680
 C        -2.911970         2.160229         1.255036
 O        -2.256490         2.010045        -0.025969
 C        -0.992713         1.848312         0.703771
 C        -0.927130         1.580750         3.162448
 C         0.371110         0.979162         2.410685
 H         0.240332        -1.056648         0.033751
 H        -2.287429        -0.338714         0.703309
 H        -1.408768        -0.906281         2.209783
 H        -3.918886         1.621910         1.247747
 H        -3.088064         3.189758         1.631637
 H        -0.395215         2.866973         0.516167
 H        -0.840499         2.695413         3.280948
 H        -1.325180         1.152425         4.088701
 H         1.071584         1.832846         2.315481
 H         0.870685         0.125247         2.950276
