19
Iteration:   887
 O         0.526642        -0.213173         0.127094
 C        -0.284601         0.622573         1.011923
 C        -1.479086        -0.048393         1.540381
 C        -1.867990         1.347712         1.939443
 C        -3.019856         2.013586         1.362345
 O        -2.494421         1.883589         0.006656
 C        -1.078625         1.833396         0.619241
 C        -0.821648         1.742765         2.998851
 C         0.466205         1.091608         2.315237
 H         1.443750        -0.260661         0.312001
 H        -2.202520        -0.484818         0.860749
 H        -1.367979        -0.821216         2.426321
 H        -4.070051         1.725006         1.477990
 H        -2.991672         3.078570         1.767996
 H        -0.628689         2.799153         0.564383
 H        -0.783781         2.808496         2.830414
 H        -1.152146         1.638798         4.040135
 H         1.247394         1.857609         2.212103
 H         0.842043         0.076275         2.825289
