19
Iteration:  2319charge 0 multiplicity 1
 O         0.565501        -0.109442         0.106684
 C        -0.296263         0.511003         0.995517
 C        -1.614147        -0.101881         1.653707
 C        -1.817185         1.459636         1.988946
 C        -3.099291         1.968301         1.263238
 O        -2.285601         2.033408         0.000064
 C        -1.047030         1.830967         0.739197
 C        -0.842800         1.741806         3.031347
 C         0.420090         0.960607         2.235876
 H        -0.028723        -0.312450        -0.599052
 H        -2.463503        -0.416699         1.035800
 H        -1.392144        -0.848533         2.429278
 H        -3.817403         1.135517         1.024240
 H        -3.446898         2.946543         1.311421
 H        -0.476790         2.788157         0.792479
 H        -0.641482         2.804732         3.240076
 H        -0.943980         1.302706         4.025804
 H         1.370220         1.631505         2.114267
 H         0.760124         0.135182         2.936885
