19
Iteration:  4838
 O         0.533273        -0.094674        -0.040273
 C        -0.321969         0.514172         1.043179
 C        -1.697751        -0.059038         1.458422
 C        -1.790254         1.442280         1.968303
 C        -3.067327         2.188427         1.111075
 O        -2.247861         2.065159        -0.036774
 C        -0.975564         1.865672         0.817401
 C        -0.816024         1.552989         3.238431
 C         0.362779         0.827969         2.470311
 H         0.441985        -1.086369         0.186124
 H        -2.370179        -0.195598         0.616683
 H        -1.734744        -0.968206         2.235165
 H        -4.007454         1.603573         1.002452
 H        -3.254872         3.337257         1.317300
 H        -0.341100         2.862009         0.719556
 H        -0.576367         2.636759         3.281099
 H        -1.181635         1.108282         4.153140
 H         1.158703         1.633885         2.347083
 H         0.810612        -0.050915         2.995230
