19
Iteration:  2882charge 0 multiplicity 1
 O         0.539170        -0.095783         0.081058
 C        -0.289203         0.547870         1.084192
 C        -1.597216        -0.060490         1.564519
 C        -1.811235         1.478029         1.963537
 C        -3.006737         2.064291         1.326637
 O        -2.312885         1.894614        -0.021221
 C        -0.982867         1.839636         0.661235
 C        -0.903684         1.579455         3.111638
 C         0.400840         1.047588         2.273968
 H         0.023665        -0.466328        -0.600611
 H        -2.198903        -0.353441         0.743506
 H        -1.725575        -0.688516         2.419387
 H        -4.083782         1.649884         1.338877
 H        -3.008048         3.239707         1.365599
 H        -0.307072         2.842449         0.528459
 H        -0.907243         2.617863         3.522777
 H        -1.341724         0.965577         3.979857
 H         1.166597         1.709627         2.016580
 H         0.883233         0.135461         2.813142
