19
Iteration:  1103
 O         0.650734        -0.038751         0.155782
 C        -0.291940         0.509468         1.026549
 C        -1.636455        -0.016907         1.716846
 C        -1.818138         1.519319         1.984191
 C        -3.061802         2.028258         1.317212
 O        -2.393058         1.801318        -0.083817
 C        -1.081547         1.728538         0.630933
 C        -0.807338         1.697288         3.085175
 C         0.421070         1.039621         2.190447
 H         0.079290        -0.118151        -0.679153
 H        -2.235560        -0.432650         0.956460
 H        -1.307691        -0.771316         2.399250
 H        -4.067576         1.615706         1.538225
 H        -3.218508         3.112061         1.421966
 H        -0.537578         2.743378         0.555964
 H        -0.656768         2.745707         3.240801
 H        -1.002082         1.119126         4.090085
 H         1.260899         1.880882         2.025551
 H         0.713782         0.223457         2.795528
