19
Iteration:  1679
 O         0.482425        -0.202419         0.136159
 C        -0.268520         0.603605         0.973208
 C        -1.549467        -0.149999         1.597982
 C        -1.820767         1.416220         1.954390
 C        -2.998884         2.142491         1.220710
 O        -2.326892         1.867868        -0.075074
 C        -1.070515         1.829279         0.708052
 C        -0.856906         1.655444         3.175366
 C         0.425363         1.129594         2.327855
 H        -0.001104        -0.334725        -0.778448
 H        -2.071162        -0.581939         0.721956
 H        -1.376321        -0.923093         2.463885
 H        -3.986528         1.735691         1.369115
 H        -3.338712         3.221789         1.476327
 H        -0.633899         2.785561         0.897945
 H        -0.796484         2.755315         3.386825
 H        -0.918628         1.138251         4.109064
 H         0.941051         1.987883         1.861575
 H         1.205355         0.432637         2.935131
