19
Iteration:   332
 O         0.620460        -0.293773         0.100166
 C        -0.169912         0.621184         0.952426
 C        -1.579953        -0.081072         1.489398
 C        -1.873941         1.366279         1.964389
 C        -3.056253         2.070004         1.407528
 O        -2.451537         1.887205         0.084051
 C        -1.071349         1.803836         0.528545
 C        -0.916255         1.797019         3.055144
 C         0.411944         1.086592         2.387052
 H         1.416800         0.126558        -0.287484
 H        -2.000506        -0.338877         0.546969
 H        -1.483522        -0.768435         2.403048
 H        -4.077805         1.524328         1.317831
 H        -3.193720         3.177650         1.703557
 H        -0.533336         2.872948         0.466368
 H        -0.861198         2.869732         2.999226
 H        -1.136352         1.443335         4.162886
 H         1.270864         1.792974         2.261039
 H         0.792370         0.216964         2.977860
