19
Iteration:  4549charge 0 multiplicity 1
 O         0.599367         0.001976        -0.062159
 C        -0.316342         0.520191         0.953753
 C        -1.733646        -0.127071         1.494260
 C        -1.878829         1.474790         2.016654
 C        -2.903381         2.298007         1.238806
 O        -2.243058         1.961136        -0.041134
 C        -0.992858         1.819119         0.793754
 C        -0.931398         1.564668         3.133878
 C         0.300804         0.785782         2.420258
 H         1.022260        -0.799206         0.254874
 H        -2.502192        -0.570586         0.875813
 H        -1.568112        -0.760612         2.439266
 H        -3.943564         2.125671         1.338991
 H        -2.754367         3.363218         1.423083
 H        -0.450105         2.815799         0.837420
 H        -0.744630         2.621801         3.397904
 H        -1.186882         1.071474         4.109993
 H         1.237713         1.347385         2.467812
 H         0.491393        -0.253155         2.789714
