19
Iteration:    62charge 0 multiplicity 1
 O         0.568379        -0.249643         0.172906
 C        -0.262448         0.601971         0.983319
 C        -1.507607        -0.082734         1.434980
 C        -1.830548         1.434535         1.966421
 C        -3.102332         1.915711         1.424807
 O        -2.423132         1.801369         0.085584
 C        -1.054346         1.739472         0.574963
 C        -0.843920         1.896119         3.015419
 C         0.434107         1.255133         2.327202
 H         0.983296         0.242617        -0.576913
 H        -2.087757        -0.432616         0.596009
 H        -1.500924        -0.875875         2.231544
 H        -4.036600         1.334036         1.497991
 H        -3.410883         2.980343         1.703881
 H        -0.439432         2.682168         0.218436
 H        -1.091766         2.970102         3.403156
 H        -0.925237         1.254386         3.962773
 H         1.361150         1.867443         2.066975
 H         0.661472         0.408261         2.952105
