19
Iteration:  4443charge 0 multiplicity 1
 O         0.571756        -0.018041         0.009746
 C        -0.343332         0.442419         0.930530
 C        -1.754890        -0.032304         1.456421
 C        -1.903557         1.379693         2.070563
 C        -2.919335         2.233264         1.211961
 O        -2.228062         1.999993        -0.034585
 C        -0.921834         1.823136         0.772001
 C        -0.923884         1.550517         3.234187
 C         0.332435         0.892340         2.349355
 H         0.983218        -0.848085         0.249013
 H        -2.405804        -0.223060         0.605377
 H        -1.861599        -0.791792         2.290055
 H        -3.879814         1.737373         1.074197
 H        -2.892957         3.301384         1.579805
 H        -0.318142         2.762459         0.705665
 H        -0.793179         2.694004         3.288787
 H        -1.205272         1.021417         4.164633
 H         1.197993         1.605849         2.159471
 H         0.724051        -0.043676         2.886465
