19
Iteration:  1396charge 0 multiplicity 1
 O         0.477198        -0.191133         0.069492
 C        -0.282151         0.579439         1.030309
 C        -1.527063        -0.132179         1.575251
 C        -1.859945         1.472648         2.023585
 C        -3.027909         2.044241         1.244674
 O        -2.342067         1.917879         0.001529
 C        -1.022345         1.785890         0.666180
 C        -0.848935         1.726369         3.038470
 C         0.352966         1.062902         2.319374
 H         1.350004         0.282366        -0.140471
 H        -2.207731        -0.615295         0.792539
 H        -1.512987        -0.769558         2.492891
 H        -4.034130         1.479870         1.136113
 H        -3.331475         3.004600         1.715688
 H        -0.473857         2.782433         0.746093
 H        -0.558562         2.836725         3.083759
 H        -1.028106         1.533315         4.115145
 H         1.239460         1.690832         2.219445
 H         0.806697         0.059649         2.836082
