19
Iteration:  4596charge 0 multiplicity 1
 O         0.461042        -0.162447         0.076671
 C        -0.327027         0.594883         1.033130
 C        -1.703340        -0.030161         1.431723
 C        -1.865793         1.419103         1.962685
 C        -3.009301         2.148155         1.153798
 O        -2.203616         2.090491        -0.049381
 C        -1.012779         1.975513         0.781071
 C        -0.817543         1.472186         3.167073
 C         0.411206         0.869291         2.387533
 H         0.741033        -0.992187         0.448232
 H        -2.240704        -0.180943         0.430240
 H        -1.728627        -0.984510         2.114848
 H        -3.964155         1.618934         1.008679
 H        -3.214874         3.145570         1.602641
 H        -0.396634         2.827036         0.886717
 H        -0.607992         2.480557         3.775613
 H        -1.073127         0.710528         3.981329
 H         1.311772         1.548142         2.121914
 H         0.782562        -0.006969         3.092792
