19
Iteration:  1043charge 0 multiplicity 1
 O         0.487427        -0.241775         0.135683
 C        -0.276616         0.584312         1.004923
 C        -1.540593        -0.059442         1.566847
 C        -1.817823         1.470014         1.929382
 C        -3.093274         1.931011         1.310524
 O        -2.430310         1.890404         0.060827
 C        -1.084016         1.888335         0.615286
 C        -0.806873         1.732920         3.043254
 C         0.474855         1.155750         2.255352
 H         1.368303        -0.528081         0.550699
 H        -2.123747        -0.531256         0.698383
 H        -1.232877        -0.780547         2.351048
 H        -3.888546         1.157602         1.394147
 H        -3.339844         3.003788         1.459043
 H        -0.642368         2.825883         0.502110
 H        -0.732257         2.842189         3.124812
 H        -1.007476         1.343493         3.976949
 H         1.241179         1.929214         2.097936
 H         0.998723         0.313285         2.903057
