19
Iteration:  4589charge 0 multiplicity 1
 O         0.448482        -0.090150         0.028522
 C        -0.330797         0.535312         1.044565
 C        -1.753697        -0.074157         1.433384
 C        -1.872496         1.408661         1.974731
 C        -2.920446         2.152089         1.205490
 O        -2.217706         2.090148        -0.110210
 C        -1.010129         1.912338         0.769943
 C        -0.837211         1.500460         3.199481
 C         0.423717         0.892058         2.439454
 H         0.861588        -0.933845         0.358401
 H        -2.297719        -0.233082         0.522379
 H        -1.752565        -0.862296         2.084778
 H        -3.904079         1.583791         1.097063
 H        -3.045149         3.205690         1.577539
 H        -0.303137         2.791702         0.732148
 H        -0.565034         2.424808         3.727370
 H        -1.268822         0.881701         4.000429
 H         1.246288         1.588626         2.337634
 H         0.780662         0.033139         2.967284
