19
Iteration:   627
 O         0.616730        -0.310714         0.086382
 C        -0.236248         0.576941         0.971366
 C        -1.594978        -0.034235         1.491132
 C        -1.815303         1.488492         1.943947
 C        -3.068848         2.054061         1.371254
 O        -2.435344         1.890003         0.046113
 C        -1.067179         1.866564         0.589810
 C        -0.903117         1.653660         3.141536
 C         0.444297         1.103452         2.346028
 H         1.296051         0.372718        -0.221773
 H        -2.363025        -0.425490         0.789931
 H        -1.508757        -0.775824         2.291470
 H        -4.030806         1.446688         1.375223
 H        -3.158298         3.178203         1.407688
 H        -0.577572         2.767938         0.253202
 H        -0.769207         2.716966         3.399417
 H        -1.208027         1.025767         4.007831
 H         1.173268         1.968748         2.223553
 H         0.971195         0.328594         3.004592
