19
Iteration:  4542charge 0 multiplicity 1
 O         0.575045         0.001091         0.002808
 C        -0.311015         0.553892         0.951723
 C        -1.708725        -0.076469         1.501346
 C        -1.853568         1.424305         1.971074
 C        -2.929655         2.299579         1.214807
 O        -2.262979         1.978511        -0.075600
 C        -1.051273         1.825801         0.760558
 C        -0.868300         1.510256         3.185360
 C         0.311877         0.770068         2.425378
 H         0.961453        -0.792050         0.327856
 H        -2.457065        -0.362819         0.709670
 H        -1.606484        -0.835063         2.346282
 H        -4.027897         2.035933         1.337005
 H        -2.721490         3.400363         1.458506
 H        -0.478199         2.695823         0.901418
 H        -0.669661         2.686595         3.314813
 H        -1.040679         1.144619         4.247478
 H         1.316633         1.326347         2.358957
 H         0.491068        -0.265424         2.938698
