19
Iteration:  4404charge 0 multiplicity 1
 O         0.517333        -0.042076         0.044151
 C        -0.211657         0.550435         1.096511
 C        -1.636236         0.096660         1.476253
 C        -1.808577         1.489466         1.855869
 C        -3.042788         2.189880         1.223809
 O        -2.387693         2.012093        -0.063514
 C        -0.940478         1.884442         0.704771
 C        -0.893362         1.530099         3.141146
 C         0.394024         0.658541         2.497503
 H         0.821545        -0.960664         0.368906
 H        -2.259798        -0.156130         0.591637
 H        -1.620474        -0.654065         2.256327
 H        -3.933687         1.476341         1.229587
 H        -3.214042         3.279648         1.472043
 H        -0.310663         2.846331         0.674531
 H        -0.628577         2.531636         3.324744
 H        -1.156150         0.963421         4.039256
 H         1.323884         1.163292         2.617542
 H         0.405131        -0.400709         2.689390
