19
Iteration:  3162charge 0 multiplicity 1
 O         0.613410        -0.084641         0.162403
 C        -0.330151         0.528964         1.040526
 C        -1.686927         0.018103         1.506757
 C        -1.790608         1.508000         2.009884
 C        -3.068676         2.113931         1.234324
 O        -2.354561         1.888891         0.000427
 C        -1.061897         1.801395         0.623368
 C        -0.734390         1.590356         3.168525
 C         0.396821         0.950157         2.299870
 H         0.258146        -0.476250        -0.612994
 H        -2.240484        -0.347696         0.660965
 H        -1.573664        -0.800347         2.244917
 H        -4.043102         1.428148         1.235189
 H        -3.346161         3.188913         1.401761
 H        -0.375816         2.708138         0.550499
 H        -0.558667         2.604326         3.430344
 H        -1.058539         1.106004         4.050716
 H         1.064630         1.779567         1.914440
 H         0.879416         0.202375         2.837988
