19
Iteration:  4461charge 0 multiplicity 1
 O         0.491140        -0.081070         0.051729
 C        -0.289773         0.489459         1.090149
 C        -1.680028        -0.134998         1.510175
 C        -1.898755         1.395177         1.884999
 C        -2.999245         2.239006         1.248502
 O        -2.175926         2.145181        -0.033199
 C        -1.058928         1.804132         0.770884
 C        -0.872148         1.490184         3.037406
 C         0.389014         0.940131         2.402279
 H         0.939616        -0.876062         0.318331
 H        -2.304195        -0.423032         0.650106
 H        -1.750567        -0.987833         2.266037
 H        -4.047027         1.937823         1.077634
 H        -2.946447         3.295744         1.629300
 H        -0.408750         2.625603         1.010848
 H        -0.751674         2.514727         3.390536
 H        -1.128453         0.746310         3.849516
 H         1.094894         1.746263         2.180741
 H         1.010834         0.118374         2.902738
