19
Iteration:  2484
 O         0.671501        -0.095065         0.155580
 C        -0.284128         0.494503         1.038701
 C        -1.673740        -0.047131         1.556129
 C        -1.839273         1.426560         1.975604
 C        -3.112662         2.080477         1.335441
 O        -2.369603         2.021262        -0.021065
 C        -1.050648         1.825659         0.610479
 C        -0.771414         1.646578         3.069542
 C         0.401592         0.958802         2.305576
 H         0.188180        -0.654032        -0.459012
 H        -2.287063        -0.237170         0.690845
 H        -1.705786        -0.853163         2.300789
 H        -3.965301         1.346449         1.194984
 H        -3.371841         3.094890         1.538439
 H        -0.385053         2.694808         0.590100
 H        -0.635114         2.710291         3.311860
 H        -0.983078         1.086567         3.995863
 H         1.244663         1.642906         1.973206
 H         0.871603         0.120852         2.928256
