19
Iteration:  4507charge 0 multiplicity 1
 O         0.572181        -0.205433         0.073485
 C        -0.312248         0.472706         0.929169
 C        -1.726610         0.040230         1.362204
 C        -1.764792         1.515064         1.901575
 C        -3.040477         2.111849         1.317253
 O        -2.244957         2.112790         0.030210
 C        -0.941678         1.915015         0.762091
 C        -0.907525         1.521519         3.174162
 C         0.338059         0.887277         2.363223
 H         0.840476        -0.882845         0.677135
 H        -2.424634        -0.135461         0.535967
 H        -1.797861        -0.846554         2.124465
 H        -3.774575         1.298929         1.303316
 H        -3.575226         3.114810         1.444267
 H        -0.355169         2.778742         0.709455
 H        -0.659136         2.631144         3.465979
 H        -1.325712         0.880112         4.025794
 H         1.279656         1.512329         2.208075
 H         0.659277        -0.031728         3.034783
