19
Iteration:  4577charge 0 multiplicity 1
 O         0.455292         0.013160        -0.041301
 C        -0.316062         0.439627         1.012664
 C        -1.704845        -0.056081         1.478506
 C        -1.807974         1.438745         1.980469
 C        -2.913384         2.199310         1.258854
 O        -2.194063         2.063932        -0.072702
 C        -0.941070         1.747728         0.715043
 C        -0.933825         1.505452         3.201457
 C         0.314234         0.886343         2.476478
 H         0.976959        -0.731247         0.203213
 H        -2.435487        -0.252714         0.679261
 H        -1.824287        -0.793357         2.233611
 H        -3.998400         1.819185         1.285952
 H        -2.937895         3.313661         1.460740
 H        -0.340785         2.658011         0.663295
 H        -0.825354         2.629144         3.356194
 H        -1.223167         0.948466         4.133471
 H         1.099221         1.668277         2.357620
 H         0.800081        -0.029170         2.872275
