19
Iteration:   441
 O         0.551826        -0.143859         0.003799
 C        -0.239409         0.586693         0.990729
 C        -1.556238        -0.114867         1.529426
 C        -1.758443         1.478333         1.993083
 C        -3.118173         2.013438         1.349289
 O        -2.345872         1.896606        -0.007586
 C        -1.093285         1.862495         0.692470
 C        -0.852516         1.795529         3.062166
 C         0.370550         0.978952         2.346070
 H         1.286618        -0.738318         0.381098
 H        -2.375486        -0.429433         0.880298
 H        -1.418455        -0.897610         2.296352
 H        -4.005060         1.349040         1.251776
 H        -3.282917         3.053883         1.468312
 H        -0.485903         2.861991         0.738754
 H        -0.892383         2.880845         3.048387
 H        -1.086217         1.412754         4.117786
 H         1.268284         1.617916         2.268700
 H         0.499510         0.031142         2.954097
