19
Iteration:   251charge 0 multiplicity 1
 O         0.442979        -0.070107         0.066524
 C        -0.278615         0.641991         1.007445
 C        -1.420707        -0.087071         1.562217
 C        -1.807411         1.461946         1.940481
 C        -3.034341         2.068533         1.329279
 O        -2.380345         1.729065        -0.022209
 C        -1.031386         1.837951         0.653316
 C        -0.899484         1.637021         3.125787
 C         0.398537         1.135519         2.317553
 H         0.465165        -0.994468         0.265263
 H        -2.050710        -0.599289         0.780125
 H        -1.191579        -0.733105         2.368309
 H        -4.030706         1.629208         1.385258
 H        -3.018967         3.176327         1.478354
 H        -0.470116         2.798860         0.293816
 H        -0.787936         2.757621         3.305226
 H        -1.198564         1.277703         4.067858
 H         1.139112         1.905610         2.122527
 H         0.852578         0.276679         2.898818
