19
Iteration:  3268charge 0 multiplicity 1
 O         0.608408        -0.046968         0.062549
 C        -0.288566         0.531402         1.012270
 C        -1.640982         0.010012         1.565854
 C        -1.787470         1.574991         2.007196
 C        -3.068334         2.131459         1.167077
 O        -2.371973         1.815388        -0.054732
 C        -1.096231         1.836219         0.697093
 C        -0.777116         1.560615         3.213902
 C         0.406847         0.952403         2.346857
 H         0.265373        -0.690826        -0.511110
 H        -2.394529        -0.343359         0.906953
 H        -1.495560        -0.542071         2.477737
 H        -3.957684         1.609813         1.274585
 H        -3.288571         3.246699         1.233986
 H        -0.456708         2.741216         0.484684
 H        -0.494858         2.601066         3.765797
 H        -1.211172         0.776955         3.896397
 H         1.273135         1.635565         2.375614
 H         0.836443        -0.100262         2.756448
