19
Iteration:  3926charge 0 multiplicity 1
 O         0.670981        -0.254559         0.176869
 C        -0.306860         0.474954         0.928946
 C        -1.673467        -0.113555         1.345045
 C        -1.873292         1.359124         1.945995
 C        -3.005191         2.224944         1.277919
 O        -2.294716         2.156717         0.025761
 C        -1.025389         1.805713         0.747110
 C        -0.882456         1.601898         3.117523
 C         0.328669         0.953749         2.421997
 H         0.877056         0.310257        -0.615572
 H        -2.417546        -0.160167         0.534460
 H        -1.740705        -0.918033         2.048718
 H        -4.118079         1.864201         1.190624
 H        -3.139344         3.157172         1.858894
 H        -0.464961         2.691117         0.671413
 H        -0.832475         2.661236         3.219803
 H        -0.974436         1.086722         4.113436
 H         1.296558         1.516053         2.356911
 H         0.588188         0.062253         2.879693
