19
Iteration:  3415charge 0 multiplicity 1
 O         0.585594         0.052002         0.012507
 C        -0.303644         0.508058         0.967924
 C        -1.603503        -0.104090         1.672727
 C        -1.812585         1.427633         2.024532
 C        -3.016136         2.142746         1.251712
 O        -2.313056         1.941315        -0.079323
 C        -1.089030         1.785067         0.649048
 C        -0.798663         1.668618         3.109955
 C         0.291412         0.887208         2.358676
 H         0.762564        -0.908827         0.309316
 H        -2.214414        -0.501318         0.829575
 H        -1.585663        -0.823705         2.536274
 H        -3.995415         1.563567         1.202397
 H        -3.112454         3.129305         1.563199
 H        -0.510648         2.619528         0.722158
 H        -0.561001         2.736167         3.222767
 H        -1.118874         1.400555         4.165315
 H         1.251677         1.614004         2.191587
 H         0.543839        -0.105678         2.813309
