19
Iteration:  1526
 O         0.634914        -0.186851         0.187547
 C        -0.300809         0.561181         0.976543
 C        -1.642562         0.019894         1.522595
 C        -1.827875         1.477181         2.013333
 C        -3.121492         2.033891         1.293304
 O        -2.363791         1.904045         0.005475
 C        -1.068930         1.827059         0.635138
 C        -0.780013         1.700687         3.073728
 C         0.418029         1.019410         2.349087
 H         0.388429        -0.426363        -0.690693
 H        -2.187915        -0.368256         0.612596
 H        -1.452874        -0.769989         2.309255
 H        -3.963889         1.440628         1.230662
 H        -3.270193         3.153648         1.469959
 H        -0.348114         2.613329         0.329010
 H        -0.685807         2.838326         3.326147
 H        -1.085352         1.116194         3.958558
 H         1.213223         1.641358         2.175026
 H         0.773312         0.006147         2.746712
