19
Iteration:  2482charge 0 multiplicity 1
 O         0.660313        -0.086494         0.160867
 C        -0.273885         0.487749         1.043043
 C        -1.680295        -0.022570         1.554985
 C        -1.845711         1.415717         1.965332
 C        -3.129551         2.053512         1.339064
 O        -2.364675         2.025565        -0.018176
 C        -1.043277         1.825204         0.607628
 C        -0.773175         1.660412         3.059452
 C         0.419566         0.943057         2.308514
 H         0.160081        -0.682296        -0.490547
 H        -2.337862        -0.253945         0.687235
 H        -1.705725        -0.876140         2.304563
 H        -3.882240         1.329988         1.216790
 H        -3.368079         3.106310         1.517454
 H        -0.310080         2.767579         0.584037
 H        -0.584187         2.706193         3.378935
 H        -1.006642         1.136829         4.042086
 H         1.264711         1.619317         1.994029
 H         0.793582         0.160732         2.861302
