19
Iteration:   945
 O         0.493473        -0.107585         0.041659
 C        -0.297145         0.518861         1.065605
 C        -1.539729        -0.042248         1.662575
 C        -1.800029         1.483317         1.953489
 C        -3.041369         1.967677         1.324033
 O        -2.365483         1.826451        -0.070739
 C        -1.111613         1.846418         0.670114
 C        -0.803261         1.685732         3.055837
 C         0.449743         1.186178         2.262642
 H         0.822791        -0.987695         0.450292
 H        -2.319168        -0.425841         0.957091
 H        -1.453518        -0.550339         2.598455
 H        -3.896362         1.303124         1.372937
 H        -3.234946         3.016687         1.535382
 H        -0.773928         2.840194         0.518839
 H        -0.678837         2.715990         3.474612
 H        -1.067469         1.039167         3.815766
 H         1.192869         1.911539         1.905247
 H         0.913524         0.276636         2.808284
