19
Iteration:  1856charge 0 multiplicity 1
 O         0.606563        -0.101284         0.115162
 C        -0.264994         0.544670         1.002253
 C        -1.603630        -0.035602         1.547610
 C        -1.773037         1.477517         1.884602
 C        -3.067018         1.972958         1.311721
 O        -2.385137         1.891275         0.004953
 C        -1.061480         1.852516         0.706660
 C        -0.801123         1.778181         3.042053
 C         0.324813         0.945077         2.397964
 H         0.214413         0.072033        -0.814632
 H        -2.359519        -0.451791         0.785131
 H        -1.467011        -0.810102         2.383866
 H        -3.824967         1.206093         1.530466
 H        -3.268410         2.954136         1.517057
 H        -0.487034         2.714604         0.418604
 H        -0.378938         2.787114         3.161905
 H        -1.138565         1.507431         4.025629
 H         1.304211         1.454340         2.338390
 H         0.655744        -0.105248         2.930922
