19
Iteration:  4026charge 0 multiplicity 1
 O         0.611029         0.043700         0.054868
 C        -0.359261         0.424578         0.971259
 C        -1.664496        -0.163739         1.509722
 C        -1.829490         1.397936         1.948079
 C        -2.971806         2.254628         1.236790
 O        -2.233861         2.140142        -0.040267
 C        -1.031153         1.789556         0.708395
 C        -0.880945         1.556711         3.135811
 C         0.244323         0.770706         2.423111
 H         1.302159        -0.621352         0.356444
 H        -2.367646        -0.487608         0.778783
 H        -1.691477        -0.861750         2.341326
 H        -4.040309         1.802185         1.141338
 H        -2.973356         3.305912         1.479810
 H        -0.335110         2.560484         0.704144
 H        -0.559879         2.567908         3.284231
 H        -1.351771         1.267730         4.119293
 H         1.154804         1.658642         2.288613
 H         0.576026        -0.098352         2.977948
