19
Iteration:   185
 O         0.614746        -0.207585         0.217530
 C        -0.347188         0.522516         0.964124
 C        -1.630322        -0.036078         1.639615
 C        -1.776448         1.404811         1.974283
 C        -3.062534         1.886856         1.361187
 O        -2.444597         1.928274        -0.076516
 C        -1.124161         1.860864         0.580939
 C        -0.792298         1.741827         3.059520
 C         0.472791         1.151846         2.253349
 H         1.123076         0.512720        -0.278290
 H        -2.280480        -0.361262         0.789445
 H        -1.499829        -0.718200         2.443430
 H        -3.827915         1.132703         1.406457
 H        -3.343766         2.928529         1.726189
 H        -0.400174         2.790033         0.514780
 H        -0.805400         2.880359         3.291915
 H        -0.924211         1.268407         4.009166
 H         1.322631         1.840186         2.117101
 H         0.863110         0.187039         2.638525
