19
Iteration:  2201charge 0 multiplicity 1
 O         0.584929        -0.214468         0.126510
 C        -0.244576         0.458777         0.983590
 C        -1.598280        -0.100740         1.578735
 C        -1.800371         1.336896         2.016090
 C        -3.080008         1.938373         1.279654
 O        -2.330435         2.134886         0.024239
 C        -1.086715         1.831061         0.701629
 C        -0.851378         1.796738         3.036592
 C         0.387200         1.106983         2.266991
 H         0.192134        -0.632485        -0.678988
 H        -2.186257        -0.436987         0.739537
 H        -1.564430        -0.847708         2.309597
 H        -3.857239         1.174957         1.152152
 H        -3.343453         2.980946         1.625177
 H        -0.479692         2.769705         0.800742
 H        -0.609526         2.863518         3.150745
 H        -1.071425         1.404228         4.007222
 H         1.149507         1.717632         2.106654
 H         0.825009         0.257199         2.930731
