19
Iteration:   726
 O         0.575776        -0.127191         0.035415
 C        -0.262936         0.554681         0.989633
 C        -1.606686        -0.008109         1.609873
 C        -1.844002         1.531721         1.990804
 C        -3.061599         2.100268         1.223719
 O        -2.365052         1.729819         0.007984
 C        -1.118825         1.902629         0.682204
 C        -0.792185         1.637127         3.155577
 C         0.398375         1.009926         2.258624
 H         1.457866        -0.219786         0.422181
 H        -2.308082        -0.358372         0.896989
 H        -1.662702        -0.732109         2.421688
 H        -4.040709         1.577396         1.376140
 H        -3.169195         3.211629         1.410150
 H        -0.557541         2.844454         0.368146
 H        -0.637887         2.643067         3.614141
 H        -1.125001         1.008593         3.973944
 H         1.040464         1.846436         2.068214
 H         0.915822         0.182453         2.734101
