19
Iteration:  2846charge 0 multiplicity 1
 O         0.598408        -0.168598         0.020697
 C        -0.240382         0.490375         1.011579
 C        -1.553430        -0.009914         1.540578
 C        -1.831761         1.463967         2.022580
 C        -3.132376         1.969016         1.232169
 O        -2.325906         1.987760        -0.081853
 C        -1.088312         1.974752         0.732912
 C        -0.798224         1.749210         3.206322
 C         0.403116         0.880368         2.337382
 H         0.064251        -0.820277        -0.369475
 H        -2.290986        -0.212050         0.746627
 H        -1.726582        -0.740234         2.369164
 H        -3.955692         1.356997         1.274488
 H        -3.455192         3.020486         1.377809
 H        -0.521683         2.900455         0.825367
 H        -0.670672         2.849354         3.300838
 H        -1.114809         1.287562         4.216375
 H         1.441105         1.450163         2.223445
 H         0.608681        -0.017850         2.918161
