19
Iteration:  1697
 O         0.517555        -0.123909         0.040989
 C        -0.293347         0.505911         1.071068
 C        -1.571503        -0.048683         1.642110
 C        -1.874172         1.415376         2.032436
 C        -3.020263         2.023721         1.198628
 O        -2.268568         1.892456        -0.052176
 C        -1.073108         1.832738         0.725547
 C        -0.816586         1.659266         3.099077
 C         0.425889         1.139137         2.281240
 H        -0.199676        -0.524746        -0.565074
 H        -2.365384        -0.447594         1.017585
 H        -1.436575        -0.741132         2.460191
 H        -4.112592         1.593913         1.054301
 H        -3.026918         3.031998         1.549405
 H        -0.325224         2.682287         0.563180
 H        -0.847009         2.703880         3.414744
 H        -1.194169         1.143788         4.025489
 H         1.181596         1.997688         2.142319
 H         0.859857         0.322459         2.825686
