19
Iteration:    87
 O         0.744115        -0.133121         0.172789
 C        -0.265418         0.608651         0.970043
 C        -1.486061        -0.036086         1.682087
 C        -1.819926         1.435024         1.960255
 C        -3.071665         1.951174         1.288121
 O        -2.543579         1.796081        -0.046900
 C        -1.201918         1.878683         0.644223
 C        -0.756411         1.776464         2.988833
 C         0.402130         1.020902         2.342680
 H         0.328908        -0.367425        -0.728951
 H        -2.185696        -0.358766         0.941642
 H        -1.494535        -0.737837         2.479176
 H        -3.971178         1.384169         1.430510
 H        -3.359498         2.990215         1.626820
 H        -0.812811         2.874744         0.694383
 H        -0.504496         2.916918         3.022939
 H        -0.994408         1.608870         3.996199
 H         1.211510         1.714397         2.088053
 H         0.801302         0.134144         2.832957
