19
Iteration:  3072
 O         0.678480        -0.229683         0.273082
 C        -0.374801         0.504797         0.963291
 C        -1.646809        -0.090108         1.494396
 C        -1.805666         1.494841         1.979251
 C        -3.120061         2.042171         1.274875
 O        -2.401747         2.021327        -0.003538
 C        -1.105448         1.940362         0.698541
 C        -0.717371         1.662520         3.088345
 C         0.409717         0.953256         2.266931
 H         0.636740         0.081737        -0.674927
 H        -2.284381        -0.457914         0.715493
 H        -1.313681        -0.881582         2.127051
 H        -4.045024         1.285046         1.216245
 H        -3.510360         3.084481         1.509618
 H        -0.555770         3.024412         0.510174
 H        -0.412929         2.740951         3.227167
 H        -0.946424         1.289441         4.064169
 H         1.320562         1.522999         2.098308
 H         0.841369        -0.059795         2.628221
