19
Iteration:  1889
 O         0.704283        -0.044499         0.195538
 C        -0.311248         0.504539         0.964649
 C        -1.642414        -0.112464         1.565625
 C        -1.852882         1.386573         2.026834
 C        -3.071837         2.138097         1.215217
 O        -2.414238         1.891346        -0.007631
 C        -1.107118         1.782982         0.681711
 C        -0.718832         1.700556         3.078295
 C         0.386958         1.034239         2.270177
 H         0.239410        -0.246739        -0.671925
 H        -2.352100        -0.630007         0.824008
 H        -1.560226        -0.816039         2.481382
 H        -4.098194         1.848924         1.506497
 H        -3.001732         3.085417         1.559352
 H        -0.415440         2.609235         0.502687
 H        -0.588088         2.761180         3.305716
 H        -1.067087         1.201195         3.962661
 H         1.109865         1.797555         2.087548
 H         0.739231         0.016471         2.720017
