19
Iteration:  2666charge 0 multiplicity 1
 O         0.710090        -0.222528         0.172066
 C        -0.205435         0.543009         1.002840
 C        -1.745392        -0.033043         1.552901
 C        -1.875177         1.506580         1.941399
 C        -3.097098         2.169098         1.289379
 O        -2.394782         1.931367         0.007720
 C        -1.059753         1.840496         0.638319
 C        -0.823506         1.539436         3.095181
 C         0.462260         1.047027         2.301409
 H         0.267792        -0.141872        -0.755974
 H        -2.397921        -0.327074         0.711599
 H        -1.726493        -0.731793         2.465679
 H        -4.094113         1.768636         1.481749
 H        -2.995130         3.234244         1.423023
 H        -0.573976         2.731155         0.444688
 H        -0.718385         2.409683         3.791031
 H        -0.981592         0.704996         3.843482
 H         1.122243         1.950464         2.014598
 H         1.020670         0.097397         2.761490
