19
Iteration:  2740charge 0 multiplicity 1
 O         0.609914        -0.114477         0.064895
 C        -0.318852         0.533980         0.981872
 C        -1.663678        -0.056727         1.591178
 C        -1.826806         1.515783         1.988067
 C        -3.088891         2.036733         1.263640
 O        -2.272079         1.940722        -0.008679
 C        -0.993020         1.853963         0.677434
 C        -0.853059         1.676968         3.181130
 C         0.404103         0.940953         2.297437
 H        -0.020127        -0.423460        -0.571183
 H        -2.343396        -0.379123         0.838439
 H        -1.539218        -0.708476         2.451936
 H        -3.891231         1.214434         1.021034
 H        -3.360825         3.032108         1.559050
 H        -0.386639         2.838612         0.540599
 H        -0.661249         2.737529         3.375860
 H        -1.277903         1.162474         4.048867
 H         1.191084         1.630918         2.105286
 H         0.808600         0.049247         2.874362
