19
Iteration:  4402charge 0 multiplicity 1
 O         0.521740        -0.055213         0.042459
 C        -0.199874         0.555126         1.093367
 C        -1.648826         0.101951         1.484769
 C        -1.810739         1.466629         1.855839
 C        -3.066967         2.186791         1.206136
 O        -2.387244         2.034812        -0.062267
 C        -0.948268         1.869065         0.706253
 C        -0.890100         1.528725         3.156909
 C         0.404397         0.659237         2.501392
 H         0.774412        -0.919205         0.412092
 H        -2.265912        -0.088413         0.620444
 H        -1.555464        -0.672463         2.205608
 H        -3.948662         1.458512         1.224309
 H        -3.137025         3.259715         1.450625
 H        -0.301774         2.925331         0.675942
 H        -0.559179         2.562271         3.290514
 H        -1.164497         0.946303         4.010928
 H         1.331450         1.197847         2.587327
 H         0.430587        -0.351575         2.688320
