19
Iteration:  4521charge 0 multiplicity 1
 O         0.520346        -0.085325         0.142989
 C        -0.316349         0.534899         1.079647
 C        -1.712837        -0.048882         1.328430
 C        -1.856716         1.538132         2.008938
 C        -3.024250         2.139360         1.229759
 O        -2.295829         2.077111        -0.018356
 C        -0.962222         1.875595         0.700684
 C        -0.795435         1.528365         3.091089
 C         0.384043         0.776589         2.403328
 H         0.989955        -0.921178         0.391802
 H        -2.277798        -0.136646         0.371715
 H        -1.853229        -0.873713         2.032393
 H        -4.065962         1.654066         1.265195
 H        -3.168595         3.220993         1.555931
 H        -0.319393         2.740190         0.546397
 H        -0.588521         2.540468         3.579774
 H        -1.065441         0.957164         4.009277
 H         1.285603         1.448739         2.275731
 H         0.708690        -0.225592         2.784978
