19
Iteration:  1767charge 0 multiplicity 1
 O         0.712032        -0.191038         0.216835
 C        -0.289685         0.505896         0.976356
 C        -1.583729        -0.079587         1.494743
 C        -1.824501         1.449680         1.894476
 C        -3.024292         2.103012         1.374939
 O        -2.463834         1.912288         0.021470
 C        -1.086821         1.854237         0.651349
 C        -0.852623         1.720555         3.051035
 C         0.389484         1.031644         2.336334
 H         0.455790        -0.317480        -0.775942
 H        -2.279023        -0.417802         0.679817
 H        -1.563310        -0.958179         2.239329
 H        -4.021544         1.592165         1.460941
 H        -3.118277         3.183320         1.547243
 H        -0.630796         2.799249         0.424203
 H        -0.634727         2.765984         3.280327
 H        -1.016124         1.315258         4.008486
 H         1.098959         1.770768         1.897295
 H         0.840267         0.089243         2.993584
