19
Iteration:  3486charge 0 multiplicity 1
 O         0.574932        -0.352710         0.177311
 C        -0.230453         0.579793         0.925996
 C        -1.580998        -0.020077         1.497008
 C        -1.843608         1.402966         1.892991
 C        -3.057538         2.141935         1.315782
 O        -2.354316         2.024088         0.019048
 C        -1.063656         1.913383         0.672299
 C        -0.896661         1.503606         3.142144
 C         0.402359         1.090323         2.359079
 H         1.008872        -0.138610        -0.700621
 H        -2.299596        -0.423922         0.752706
 H        -1.447490        -0.772658         2.292174
 H        -4.016888         1.651981         1.343660
 H        -3.207445         3.236171         1.455329
 H        -0.616896         3.011156         0.627223
 H        -0.720053         2.556155         3.507078
 H        -1.143118         0.903750         3.991232
 H         0.961914         2.082126         2.261696
 H         1.030518         0.192345         2.580029
