19
Iteration:  1164charge 0 multiplicity 1
 O         0.480628        -0.140631         0.056956
 C        -0.279527         0.525229         0.983065
 C        -1.567625        -0.028936         1.607266
 C        -1.772835         1.404983         1.962338
 C        -3.068852         1.924401         1.294119
 O        -2.383152         1.905850        -0.012124
 C        -1.051516         1.885835         0.636545
 C        -0.831065         1.730490         3.030662
 C         0.405316         1.116966         2.370892
 H         1.099580        -0.743152         0.449917
 H        -2.253192        -0.502791         0.897221
 H        -1.378640        -0.774206         2.454263
 H        -4.081599         1.418494         1.318629
 H        -3.215107         3.040657         1.488290
 H        -0.484309         2.833549         0.665975
 H        -0.680850         2.829159         3.214113
 H        -0.957306         1.337132         3.984813
 H         1.209786         1.699940         2.150860
 H         1.001457         0.301224         2.943288
