19
Iteration:  2790
 O         0.703856        -0.268665         0.170683
 C        -0.271217         0.498010         0.949928
 C        -1.590058        -0.073058         1.487179
 C        -1.890573         1.401047         1.988037
 C        -3.060299         2.246311         1.274799
 O        -2.404353         1.947440         0.045296
 C        -1.089827         1.797021         0.714610
 C        -0.838636         1.574827         3.059950
 C         0.394931         1.116857         2.301433
 H         0.545043         0.131011        -0.753232
 H        -2.345272        -0.366164         0.689409
 H        -1.591173        -0.820831         2.313868
 H        -4.010447         1.901113         1.437515
 H        -3.025651         3.366062         1.381132
 H        -0.551848         2.693878         0.666603
 H        -0.731487         2.592284         3.488392
 H        -1.157464         0.914364         3.899615
 H         1.149347         2.034402         2.215337
 H         0.911748         0.341638         2.810323
