19
Iteration:  2014
 O         0.610335        -0.070619         0.105839
 C        -0.227107         0.598599         0.973061
 C        -1.620465        -0.093664         1.559534
 C        -1.831547         1.431190         1.974323
 C        -2.979033         2.142313         1.306347
 O        -2.431989         1.791462         0.023689
 C        -1.077576         1.805859         0.665547
 C        -0.882751         1.686250         2.989440
 C         0.391170         0.999658         2.438395
 H         0.141993        -0.107624        -0.810503
 H        -2.287070        -0.443381         0.791125
 H        -1.494087        -0.732609         2.398456
 H        -3.991494         1.905684         1.406778
 H        -2.845045         3.211332         1.319804
 H        -0.509256         2.680624         0.528721
 H        -0.630327         2.765308         3.176939
 H        -0.948029         1.087295         3.926824
 H         1.377860         1.628288         2.230996
 H         0.890912         0.015586         2.994548
