19
Iteration:  2637
 O         0.611246        -0.133226         0.231574
 C        -0.304205         0.582397         0.981270
 C        -1.628104        -0.093722         1.537575
 C        -1.816185         1.473451         1.965536
 C        -2.950399         2.170122         1.269255
 O        -2.358419         1.912759        -0.028017
 C        -1.091181         1.802178         0.636769
 C        -0.803377         1.525364         3.139544
 C         0.333207         1.025704         2.257601
 H         0.133572        -0.269320        -0.594896
 H        -2.379516        -0.401035         0.793258
 H        -1.525896        -0.904954         2.259144
 H        -3.977929         1.818448         1.513850
 H        -2.941636         3.333021         1.455391
 H        -0.618777         2.886835         0.615208
 H        -0.573478         2.441618         3.674079
 H        -1.049970         0.885992         3.989722
 H         0.834559         1.966851         2.030117
 H         1.014707         0.330859         2.471887
