19
Iteration:  3279
 O         0.576908        -0.032433         0.088114
 C        -0.269528         0.603574         0.994351
 C        -1.607750        -0.012364         1.575064
 C        -1.847478         1.515671         1.947853
 C        -3.026590         2.095429         1.217482
 O        -2.426418         1.834531        -0.078056
 C        -1.027726         1.861494         0.677047
 C        -0.755936         1.555164         3.188807
 C         0.412145         0.901807         2.408385
 H        -0.009771        -0.665937        -0.343060
 H        -2.142930        -0.425398         0.755835
 H        -1.609681        -0.742974         2.371992
 H        -3.993998         1.760859         1.350328
 H        -3.006713         3.239790         1.245496
 H        -0.612158         2.851966         0.384927
 H        -0.591699         2.714258         3.423896
 H        -1.078683         1.120716         4.165678
 H         1.289536         1.555629         2.332132
 H         0.659130        -0.099170         2.953301
