19
Iteration:   659
 O         0.574659        -0.145244         0.180153
 C        -0.391626         0.520832         0.952416
 C        -1.627271        -0.165187         1.633223
 C        -1.852513         1.415518         2.050488
 C        -3.091090         1.932347         1.214000
 O        -2.339501         2.051901        -0.026093
 C        -1.131725         1.866033         0.688223
 C        -0.712837         1.729362         3.087253
 C         0.456004         1.052970         2.182424
 H         1.459750         0.116537         0.432259
 H        -2.325370        -0.537521         0.840884
 H        -1.441100        -0.936353         2.415768
 H        -4.034567         1.346810         0.992346
 H        -3.489438         2.988328         1.369882
 H        -0.517625         2.844378         0.586640
 H        -0.499405         2.761910         3.371649
 H        -0.762213         1.209973         4.055689
 H         1.179197         1.745418         1.896360
 H         0.709043         0.123179         2.787957
