19
Iteration:   396charge 0 multiplicity 1
 O         0.568156        -0.068676         0.004796
 C        -0.262638         0.524299         1.041396
 C        -1.580050        -0.103036         1.626633
 C        -1.868387         1.477612         1.950294
 C        -3.087133         2.040900         1.225172
 O        -2.326018         1.862154        -0.065359
 C        -1.071961         1.853838         0.732071
 C        -0.803078         1.714475         3.146854
 C         0.401167         1.081981         2.338797
 H         0.153095        -0.973692        -0.155820
 H        -2.122038        -0.653512         0.889104
 H        -1.445740        -0.708013         2.567706
 H        -3.882317         1.289086         1.251019
 H        -3.274253         3.075625         1.418639
 H        -0.595264         2.903256         0.698443
 H        -0.506137         2.670130         3.560158
 H        -1.026396         1.013359         4.007870
 H         1.083093         1.809408         1.958268
 H         0.842336         0.195197         2.943795
