19
Iteration:  3991
 O         0.461231        -0.095131        -0.004255
 C        -0.217079         0.545380         0.986328
 C        -1.607295         0.043574         1.384834
 C        -1.821696         1.527988         1.985362
 C        -3.012185         2.150898         1.213782
 O        -2.177278         1.940104        -0.023526
 C        -1.000531         1.935926         0.834581
 C        -0.917229         1.477962         3.201554
 C         0.273676         0.839593         2.457805
 H         0.556348        -1.075786         0.187192
 H        -2.185898        -0.087258         0.446064
 H        -1.778547        -0.750747         2.123922
 H        -4.000710         1.574116         0.974806
 H        -3.206091         3.157982         1.300675
 H        -0.450444         2.815186         0.739885
 H        -0.663293         2.458602         3.506299
 H        -1.348625         0.855098         4.010892
 H         1.232244         1.699274         2.401791
 H         0.768197        -0.023824         2.891213
