19
Iteration:  2605
 O         0.580476        -0.152754         0.010366
 C        -0.206151         0.522639         0.983600
 C        -1.592044        -0.079666         1.529346
 C        -1.836265         1.455645         1.988881
 C        -3.056975         2.038339         1.264498
 O        -2.359981         2.037208         0.013498
 C        -1.037699         1.758417         0.702512
 C        -0.825179         1.750548         3.097662
 C         0.382991         0.967600         2.444558
 H        -0.101061        -0.733848        -0.475191
 H        -2.248103        -0.262947         0.670520
 H        -1.611458        -0.906648         2.215835
 H        -4.024836         1.413440         1.283555
 H        -3.341357         3.090316         1.532008
 H        -0.533802         2.812273         0.698782
 H        -0.631703         2.811061         3.074743
 H        -1.087976         1.316174         4.042645
 H         1.233367         1.617891         2.415715
 H         0.716188         0.122761         2.938139
