19
Iteration:  3840
 O         0.480371        -0.144348         0.059928
 C        -0.299201         0.565910         1.043177
 C        -1.573854        -0.111968         1.509347
 C        -1.889858         1.390816         1.953375
 C        -2.981293         2.163776         1.186678
 O        -2.148361         2.036860        -0.011577
 C        -1.041205         1.880444         0.782064
 C        -0.891219         1.546157         3.123430
 C         0.356524         0.960539         2.376235
 H        -0.244578        -0.483588        -0.538382
 H        -2.283679        -0.298942         0.698337
 H        -1.668812        -0.886091         2.204983
 H        -3.929691         1.657186         1.028557
 H        -3.162083         3.247490         1.507417
 H        -0.262093         2.802498         0.794496
 H        -0.880369         2.579397         3.401651
 H        -0.969254         0.953338         4.072953
 H         1.113044         1.649421         2.259570
 H         0.659600         0.144532         3.016422
