19
Iteration:  1269
 O         0.535664        -0.113966         0.129129
 C        -0.260669         0.498524         1.041046
 C        -1.572342        -0.075817         1.652610
 C        -1.806759         1.497584         1.979222
 C        -3.134860         1.961951         1.221200
 O        -2.356123         1.913293        -0.004088
 C        -1.070690         1.804005         0.677668
 C        -0.774003         1.821756         3.021075
 C         0.402150         0.948373         2.307510
 H         0.657920         0.504591        -0.556149
 H        -2.249164        -0.471491         0.881299
 H        -1.358718        -0.757279         2.446006
 H        -3.995020         1.226810         1.154772
 H        -3.456795         2.949445         1.659747
 H        -0.442477         2.619794         0.324827
 H        -0.386779         2.825326         3.177190
 H        -1.066652         1.278677         3.969596
 H         1.193081         1.787758         2.121981
 H         0.670324         0.157463         2.930909
