19
Iteration:  4555charge 0 multiplicity 1
 O         0.596691         0.021180        -0.115455
 C        -0.310810         0.430434         0.978800
 C        -1.724869        -0.129341         1.518457
 C        -1.915401         1.475853         2.000427
 C        -2.875165         2.299732         1.275945
 O        -2.212922         1.948570         0.025633
 C        -0.943890         1.841284         0.795855
 C        -0.969058         1.605550         3.110025
 C         0.264170         0.808637         2.402672
 H         1.047538        -0.815543         0.263373
 H        -2.487746        -0.643397         0.900954
 H        -1.567309        -0.746839         2.362861
 H        -3.997838         2.039738         1.168037
 H        -2.780993         3.413357         1.455462
 H        -0.406000         2.793797         0.585329
 H        -0.639639         2.637139         3.436038
 H        -1.444318         0.963958         3.876204
 H         1.175131         1.428299         2.467446
 H         0.497669        -0.174330         2.838086
