19
Iteration:  1325charge 0 multiplicity 1
 O         0.526096        -0.141271         0.097662
 C        -0.192544         0.580597         0.998996
 C        -1.568772        -0.056804         1.555422
 C        -1.737640         1.443538         1.947618
 C        -3.052051         2.120537         1.288261
 O        -2.401354         1.801294        -0.053764
 C        -1.112596         1.823782         0.646318
 C        -0.847165         1.669353         3.124091
 C         0.408623         1.159021         2.334915
 H         0.216775        -1.096853        -0.010196
 H        -2.228991        -0.440589         0.811994
 H        -1.460988        -0.818243         2.349649
 H        -3.909424         1.469838         1.568573
 H        -3.153362         3.250187         1.473126
 H        -0.662007         2.773716         0.377592
 H        -0.806460         2.632679         3.674086
 H        -1.044241         0.941161         3.946810
 H         1.281211         1.919729         2.374569
 H         0.832361         0.320703         2.888079
