19
Iteration:  4637
 O         0.585088        -0.213132         0.121467
 C        -0.289690         0.446355         0.989903
 C        -1.676163        -0.054489         1.379061
 C        -1.723798         1.402053         1.895936
 C        -2.998366         2.086227         1.298965
 O        -2.305753         2.275907         0.004927
 C        -0.977871         1.913227         0.636705
 C        -0.898484         1.537336         3.147911
 C         0.295411         0.926024         2.445984
 H         0.476783        -1.209049         0.124343
 H        -2.416839        -0.054580         0.544280
 H        -1.725718        -0.811624         2.235268
 H        -3.933840         1.567857         1.179861
 H        -3.127274         3.111443         1.650976
 H        -0.292990         2.901427         0.632915
 H        -0.984441         2.395971         3.785830
 H        -1.193432         0.866493         3.948919
 H         1.171026         1.554699         2.303894
 H         0.625469        -0.004383         2.943888
