19
Iteration:  2686
 O         0.606558        -0.160707         0.167675
 C        -0.332605         0.480142         0.920121
 C        -1.573928        -0.030045         1.493526
 C        -1.782808         1.478989         1.977089
 C        -2.992047         2.062955         1.338617
 O        -2.355306         1.966737        -0.010864
 C        -1.016776         1.861422         0.680914
 C        -0.874328         1.642846         3.111207
 C         0.340295         0.984455         2.313927
 H         0.231092        -0.512759        -0.664048
 H        -2.291622        -0.293726         0.718766
 H        -1.533205        -0.815937         2.279932
 H        -4.010644         1.472610         1.384347
 H        -3.206078         3.075817         1.619209
 H        -0.489123         2.807654         0.549048
 H        -0.826364         2.743297         3.226468
 H        -1.100590         1.360739         4.136331
 H         1.092476         1.760160         2.087094
 H         0.740485         0.126211         3.042426
