19
Iteration:  2058charge 0 multiplicity 1
 O         0.595653        -0.185500         0.197599
 C        -0.328889         0.500658         0.986534
 C        -1.656288        -0.008763         1.582429
 C        -1.835058         1.479295         1.949109
 C        -3.090242         1.978541         1.263667
 O        -2.337463         1.975516         0.001967
 C        -1.034644         1.893611         0.659858
 C        -0.748432         1.578555         3.129909
 C         0.444047         1.148880         2.239720
 H         0.076730        -0.709245        -0.523432
 H        -2.298911        -0.407615         0.802489
 H        -1.547504        -0.653644         2.416896
 H        -3.933633         1.257021         1.130849
 H        -3.558746         2.924694         1.548476
 H        -0.477011         2.760471         0.513764
 H        -0.659536         2.610155         3.543016
 H        -1.217395         0.850729         3.814222
 H         1.202128         2.056197         1.982043
 H         1.116461         0.216886         2.760635
