19
Iteration:  4014
 O         0.538266         0.030610        -0.001841
 C        -0.310432         0.513539         1.004115
 C        -1.768765        -0.123254         1.454493
 C        -1.837162         1.429165         1.949010
 C        -2.905702         2.170782         1.260291
 O        -2.214100         2.038838        -0.033996
 C        -0.936232         1.847035         0.692511
 C        -0.952879         1.596996         3.175226
 C         0.304413         0.802741         2.478831
 H         1.018223        -0.730696         0.393646
 H        -2.465522        -0.378738         0.666345
 H        -1.683815        -0.848475         2.263641
 H        -3.971487         1.689887         1.127415
 H        -3.005387         3.153980         1.623071
 H        -0.337002         2.666853         0.521945
 H        -0.796195         2.617556         3.385129
 H        -1.264590         0.994144         4.071970
 H         1.410732         1.417616         2.315272
 H         0.624204        -0.134703         2.935204
