19
Iteration:   921charge 0 multiplicity 1
 O         0.602546        -0.132601         0.095864
 C        -0.353960         0.485640         0.999416
 C        -1.654823        -0.037238         1.624214
 C        -1.834999         1.498040         2.001833
 C        -3.170826         1.894733         1.238960
 O        -2.419559         1.968051         0.029192
 C        -1.017753         1.772908         0.594406
 C        -0.704439         1.727664         3.135709
 C         0.471915         1.158253         2.236908
 H         1.069875        -0.679054         0.754588
 H        -2.386717        -0.384899         0.870874
 H        -1.354221        -0.745562         2.475106
 H        -3.955949         1.133895         1.285279
 H        -3.557221         2.919074         1.453007
 H        -0.579329         2.618605         0.206156
 H        -0.423726         2.756032         3.335685
 H        -0.913714         1.279806         4.080213
 H         1.089410         1.914821         1.801525
 H         1.091167         0.215152         2.668308
