19
Iteration:  3173charge 0 multiplicity 1
 O         0.645867        -0.123873         0.246456
 C        -0.366089         0.503351         0.964163
 C        -1.639078        -0.090775         1.501892
 C        -1.823529         1.514208         1.952557
 C        -3.026400         2.036998         1.314124
 O        -2.366329         1.998320        -0.027139
 C        -1.042469         1.819316         0.635592
 C        -0.741402         1.647614         3.152983
 C         0.330027         0.982522         2.278666
 H         0.236470        -0.069667        -0.611994
 H        -2.449046        -0.226749         0.802256
 H        -1.693295        -0.758981         2.380280
 H        -3.970658         1.304284         1.260964
 H        -3.363440         3.053980         1.627916
 H        -0.429299         2.664667         0.196732
 H        -0.448273         2.651452         3.315855
 H        -0.908819         1.125903         4.056633
 H         1.269203         1.585454         2.121573
 H         0.829080         0.112401         2.659281
