19
Iteration:  2318charge 0 multiplicity 1
 O         0.565506        -0.105586         0.104843
 C        -0.298479         0.514790         1.004588
 C        -1.615103        -0.101350         1.661123
 C        -1.813488         1.453596         1.986327
 C        -3.095762         1.972085         1.257608
 O        -2.286232         2.031607        -0.001521
 C        -1.048418         1.833009         0.747435
 C        -0.840385         1.735532         3.024552
 C         0.418655         0.959511         2.234777
 H        -0.050348        -0.281175        -0.574484
 H        -2.481664        -0.433218         1.032966
 H        -1.382330        -0.861973         2.453638
 H        -3.814835         1.164973         1.010794
 H        -3.415490         2.943759         1.288134
 H        -0.521719         2.747378         0.755549
 H        -0.622288         2.790332         3.259069
 H        -0.967157         1.293770         4.036104
 H         1.387991         1.666312         2.103675
 H         0.753772         0.142818         2.897867
