19
Iteration:  3625
 O         0.532350        -0.162261         0.104737
 C        -0.280808         0.522832         0.998571
 C        -1.628137        -0.097487         1.538965
 C        -1.830586         1.331765         1.948098
 C        -2.981413         2.183118         1.205962
 O        -2.330389         2.090344        -0.039735
 C        -1.141020         1.825217         0.718116
 C        -0.842748         1.525667         3.166532
 C         0.416950         1.045795         2.289479
 H         1.266527        -0.478903         0.730361
 H        -2.305817        -0.358876         0.670901
 H        -1.614785        -0.979023         2.224640
 H        -4.154225         1.876047         1.202535
 H        -2.900401         3.126097         1.758267
 H        -0.448036         2.768674         0.724663
 H        -0.774995         2.583478         3.438791
 H        -1.038484         0.950825         4.134254
 H         1.126028         1.832527         2.052229
 H         0.895172         0.180045         2.538918
