19
Iteration:  1109charge 0 multiplicity 1
 O         0.655595        -0.016909         0.134960
 C        -0.288611         0.533808         0.990211
 C        -1.663504        -0.027580         1.699150
 C        -1.798345         1.489860         2.025528
 C        -3.037943         2.020012         1.301211
 O        -2.405762         1.787331        -0.077962
 C        -1.101469         1.780439         0.636689
 C        -0.819958         1.737384         3.063117
 C         0.444754         1.029758         2.250286
 H         0.005499        -0.362327        -0.450587
 H        -2.315930        -0.459696         0.884422
 H        -1.503363        -0.741358         2.572587
 H        -3.911628         1.372608         1.562448
 H        -3.077016         3.116901         1.296184
 H        -0.548087         2.685909         0.546124
 H        -0.624245         2.817561         3.309986
 H        -0.991421         1.204917         3.930154
 H         1.262090         1.656401         2.044684
 H         0.724846         0.010333         2.709410
