19
Iteration:  1246
 O         0.602213        -0.242852         0.089775
 C        -0.238724         0.533076         0.936504
 C        -1.602605        -0.006635         1.542759
 C        -1.795578         1.472393         1.972154
 C        -3.027405         2.018634         1.371101
 O        -2.497435         1.825372        -0.057167
 C        -1.085908         1.862270         0.659704
 C        -0.823982         1.782116         3.063876
 C         0.403579         1.052059         2.433203
 H         1.296134         0.281619        -0.429684
 H        -2.169034        -0.455295         0.711064
 H        -1.393889        -0.705270         2.301136
 H        -3.959232         1.367364         1.293711
 H        -3.210768         3.110093         1.677057
 H        -0.566849         2.801052         0.536580
 H        -0.566441         2.818972         3.124756
 H        -1.008046         1.354954         4.113091
 H         1.329186         1.766797         2.360240
 H         0.446685         0.153428         2.948416
