19
Iteration:  2758charge 0 multiplicity 1
 O         0.540794        -0.150953         0.171513
 C        -0.331483         0.553091         0.974803
 C        -1.593571         0.004629         1.524141
 C        -1.818871         1.448162         1.979002
 C        -2.976887         2.079423         1.271767
 O        -2.365468         1.886687        -0.060035
 C        -1.036928         1.824852         0.656632
 C        -0.808961         1.555317         3.135138
 C         0.375005         1.075737         2.368071
 H         0.258238        -0.024197        -0.715496
 H        -2.381877        -0.208658         0.763657
 H        -1.474789        -0.719771         2.330371
 H        -3.877144         1.626811         1.493638
 H        -2.929401         3.281351         1.288217
 H        -0.459650         2.764217         0.457772
 H        -0.620559         2.490882         3.709828
 H        -1.095735         0.760286         3.887022
 H         1.111917         1.930464         2.249644
 H         0.798015         0.218224         2.750896
