19
Iteration:  4116
 O         0.442912        -0.189300         0.089656
 C        -0.302507         0.538589         0.994229
 C        -1.614717        -0.040920         1.492587
 C        -1.876392         1.457800         1.976751
 C        -3.000281         2.140904         1.159317
 O        -2.184348         2.075985        -0.087056
 C        -0.981439         1.933301         0.798658
 C        -0.884180         1.505514         3.191626
 C         0.295753         0.848280         2.333587
 H         1.308082         0.237738         0.020561
 H        -2.421775        -0.373691         0.812125
 H        -1.496474        -0.775699         2.281971
 H        -3.934097         1.619830         1.244486
 H        -3.164321         3.153786         1.426187
 H        -0.442582         2.829282         0.795929
 H        -0.588947         2.480918         3.704355
 H        -1.272991         0.839328         3.983261
 H         1.262702         1.602289         2.347635
 H         0.808534        -0.010597         2.884002
