19
Iteration:  3384
 O         0.590825        -0.141245         0.056466
 C        -0.218413         0.521615         1.013076
 C        -1.609352        -0.021054         1.430338
 C        -1.819797         1.460274         1.978017
 C        -3.025273         2.154360         1.324886
 O        -2.371401         1.829737         0.005437
 C        -1.001409         1.838689         0.714467
 C        -0.858606         1.640749         3.131802
 C         0.355774         1.065247         2.356242
 H        -0.031707        -0.846707        -0.055063
 H        -2.117825        -0.158275         0.455836
 H        -1.810911        -0.893705         2.136221
 H        -4.027090         1.594959         1.289842
 H        -3.121927         3.192280         1.494772
 H        -0.521345         2.811984         0.650518
 H        -0.786726         2.630773         3.457449
 H        -1.191800         1.014296         4.002110
 H         1.213198         1.849439         2.239586
 H         0.850966         0.260388         2.863209
