19
Iteration:  1723
 O         0.622527        -0.086050         0.106137
 C        -0.302349         0.491685         1.040640
 C        -1.637981        -0.059098         1.568390
 C        -1.801416         1.537910         1.991029
 C        -3.040863         1.975289         1.243266
 O        -2.379421         1.879120        -0.037540
 C        -1.069869         1.899596         0.670310
 C        -0.765477         1.748490         3.108515
 C         0.413816         0.949375         2.315792
 H         0.044337        -0.520124        -0.624566
 H        -2.503200        -0.413296         0.984439
 H        -1.516557        -0.735851         2.501647
 H        -3.921463         1.281975         1.379085
 H        -3.484685         2.993897         1.415375
 H        -0.444190         2.745537         0.509699
 H        -0.453125         2.786938         3.282572
 H        -1.267672         1.441165         3.970258
 H         1.209080         1.692456         2.320963
 H         0.738867        -0.087450         2.818485
