19
Iteration:  2832
 O         0.604441        -0.117326         0.128607
 C        -0.269806         0.530069         0.997512
 C        -1.638352        -0.023665         1.555696
 C        -1.847578         1.492334         1.934535
 C        -3.121551         1.987930         1.266837
 O        -2.331003         2.042254         0.027785
 C        -1.019513         1.832085         0.713278
 C        -0.795378         1.693363         3.012397
 C         0.387556         0.917119         2.381634
 H         0.124822        -0.710280        -0.526950
 H        -2.343850        -0.390926         0.735940
 H        -1.382914        -0.783725         2.338642
 H        -3.880327         1.245217         1.065730
 H        -3.445476         2.895278         1.628334
 H        -0.469477         2.688637         0.542938
 H        -0.499099         2.727455         3.211635
 H        -0.944304         1.196830         3.972259
 H         1.340301         1.571715         2.175175
 H         0.617629         0.010595         2.926874
