19
Iteration:   943
 O         0.497425        -0.106821         0.059141
 C        -0.291477         0.532813         1.060937
 C        -1.547047        -0.039994         1.670756
 C        -1.791205         1.479404         1.960408
 C        -3.028247         1.959229         1.324113
 O        -2.368034         1.837853        -0.078641
 C        -1.128488         1.845491         0.656510
 C        -0.784715         1.680392         3.049302
 C         0.445478         1.173859         2.248418
 H         0.849901        -0.957190         0.416214
 H        -2.339098        -0.370101         0.966871
 H        -1.551586        -0.574547         2.679855
 H        -3.867831         1.261408         1.350912
 H        -3.341831         3.019675         1.563306
 H        -0.697891         2.805154         0.519053
 H        -0.726877         2.677246         3.477411
 H        -1.051623         1.052596         3.866914
 H         1.097718         1.958114         1.909424
 H         0.900874         0.249653         2.819080
