19
Iteration:  1727
 O         0.649578        -0.116218         0.119467
 C        -0.311149         0.531882         1.027791
 C        -1.635747        -0.063394         1.558167
 C        -1.781558         1.563445         2.002959
 C        -3.026105         1.943927         1.233652
 O        -2.412737         1.878445        -0.054049
 C        -1.107392         1.905916         0.672721
 C        -0.743607         1.738819         3.111576
 C         0.410693         0.921827         2.348676
 H         0.101965        -0.423308        -0.570808
 H        -2.488027        -0.331427         0.907297
 H        -1.454658        -0.699394         2.384114
 H        -3.988821         1.517884         1.350790
 H        -3.504681         2.985351         1.583831
 H        -0.453458         2.778213         0.465809
 H        -0.506074         2.839517         3.156064
 H        -1.264264         1.420598         4.073958
 H         1.269469         1.571349         2.243187
 H         0.678887         0.025883         2.804418
