19
Iteration:  3052charge 0 multiplicity 1
 O         0.616267        -0.231312         0.231159
 C        -0.251916         0.581199         0.897851
 C        -1.542166        -0.015842         1.469106
 C        -1.769222         1.461963         1.956756
 C        -3.030395         2.070721         1.385616
 O        -2.468074         1.968602        -0.025119
 C        -1.080537         1.810481         0.622828
 C        -0.829588         1.649160         3.104585
 C         0.356552         0.992473         2.352203
 H         0.545878         0.006028        -0.743734
 H        -2.229651        -0.244040         0.655477
 H        -1.684204        -0.746562         2.296156
 H        -4.086052         1.607918         1.332539
 H        -3.086814         3.135279         1.776023
 H        -0.487964         2.796685         0.380383
 H        -0.582723         2.642865         3.386950
 H        -1.106009         1.074488         3.951277
 H         1.294794         1.558914         2.280752
 H         0.653106         0.156752         2.835887
