19
Iteration:   733
 O         0.624609        -0.129938         0.049634
 C        -0.301231         0.572323         1.017547
 C        -1.629507        -0.012626         1.628104
 C        -1.848130         1.503187         1.966556
 C        -3.088169         2.129144         1.238075
 O        -2.360499         1.758154         0.007284
 C        -1.113987         1.846762         0.741358
 C        -0.801277         1.643556         3.119355
 C         0.425317         1.017574         2.194049
 H         1.508412        -0.193492         0.537131
 H        -2.459608        -0.209415         0.873285
 H        -1.439335        -0.557593         2.609467
 H        -4.055010         1.624324         1.228812
 H        -3.337410         3.186627         1.289824
 H        -0.728308         2.913935         0.467513
 H        -0.716419         2.574137         3.635482
 H        -1.013895         0.875494         3.891086
 H         1.237043         1.690062         1.840384
 H         0.893833         0.031025         2.762357
