19
Iteration:  2660charge 0 multiplicity 1
 O         0.680708        -0.187813         0.207696
 C        -0.248436         0.519581         0.981889
 C        -1.720584        -0.036241         1.555290
 C        -1.874710         1.512199         1.985382
 C        -3.098105         2.175933         1.262084
 O        -2.420719         1.934923        -0.037022
 C        -1.057444         1.822901         0.635589
 C        -0.785302         1.482312         3.148696
 C         0.507921         1.059120         2.279878
 H         0.416625        -0.142216        -0.718999
 H        -2.335215        -0.438399         0.742806
 H        -1.770301        -0.747356         2.342582
 H        -4.217318         1.999347         1.426472
 H        -3.022595         3.321512         1.426103
 H        -0.510367         2.805649         0.230262
 H        -0.864028         2.341309         3.816901
 H        -0.891420         0.692019         3.883913
 H         1.199078         1.830063         2.023012
 H         0.993125         0.341523         2.826706
