19
Iteration:  3196charge 0 multiplicity 1
 O         0.677930        -0.302547         0.179263
 C        -0.262774         0.522253         0.941179
 C        -1.577904        -0.053153         1.551614
 C        -1.870966         1.406986         1.884382
 C        -3.043474         2.059789         1.353052
 O        -2.400446         2.097883         0.052417
 C        -1.091218         1.844810         0.668960
 C        -0.848565         1.722838         3.021912
 C         0.377490         0.955818         2.323197
 H         0.649507         0.054057        -0.740081
 H        -2.290229        -0.450422         0.791116
 H        -1.362486        -0.707155         2.439905
 H        -4.028461         1.394461         1.124024
 H        -3.368797         3.078583         1.801866
 H        -0.613166         2.929627         0.775668
 H        -0.761153         2.754073         2.991141
 H        -1.144393         1.346802         3.977968
 H         1.338776         1.504316         2.174813
 H         0.785850         0.244756         2.940349
