19
Iteration:  3120
 O         0.441479        -0.095907         0.040066
 C        -0.302118         0.550593         0.953203
 C        -1.441659        -0.130073         1.568898
 C        -1.845351         1.428702         1.975035
 C        -2.969535         2.125121         1.239288
 O        -2.310278         1.908823        -0.025349
 C        -1.008318         1.811656         0.679261
 C        -0.906482         1.652557         3.167310
 C         0.359015         1.020249         2.427503
 H        -0.042485        -0.699896        -0.509992
 H        -2.327462        -0.365705         0.903103
 H        -1.289780        -0.886325         2.408521
 H        -4.078000         1.744132         1.320623
 H        -2.971959         3.280743         1.436531
 H        -0.328248         2.834477         0.387921
 H        -0.735706         2.669270         3.363289
 H        -1.169451         1.134556         4.118155
 H         1.068773         1.859058         2.318059
 H         0.983272         0.306128         2.802396
