19
Iteration:   101
 O         0.787237        -0.015736         0.086610
 C        -0.213415         0.491327         0.999550
 C        -1.660385        -0.017299         1.712524
 C        -1.872285         1.487804         2.002266
 C        -3.206831         1.977644         1.277422
 O        -2.451373         1.795362        -0.034882
 C        -1.162823         1.794942         0.680020
 C        -0.755039         1.805551         3.047021
 C         0.489116         1.044538         2.242529
 H         0.357881        -0.768411        -0.321078
 H        -2.418095        -0.612687         1.104669
 H        -1.379413        -0.564366         2.629496
 H        -4.133366         1.338384         1.355924
 H        -3.368721         3.033863         1.340796
 H        -0.658442         2.697430         0.426439
 H        -0.564740         2.837095         3.109795
 H        -0.893329         1.148965         3.915713
 H         1.364228         1.648926         2.101413
 H         0.738407         0.147779         2.883830
