19
Iteration:  3228
 O         0.553464        -0.222913         0.184953
 C        -0.317433         0.529482         0.972282
 C        -1.566157        -0.121256         1.485988
 C        -1.854193         1.386813         1.936039
 C        -2.991264         2.095710         1.300017
 O        -2.350349         2.025377        -0.033882
 C        -1.078200         1.801343         0.690010
 C        -0.825864         1.689545         3.117995
 C         0.452260         1.084678         2.366353
 H         0.141008        -0.019117        -0.714797
 H        -2.329832        -0.347253         0.703831
 H        -1.514456        -0.988193         2.173761
 H        -3.973927         1.478748         1.142260
 H        -3.177998         3.070598         1.746068
 H        -0.646942         2.772643         0.716693
 H        -0.775615         2.729960         3.395270
 H        -1.007656         1.169519         4.035606
 H         1.176988         1.835393         1.937918
 H         0.867127         0.250572         2.937486
